                                   MODFLOW 6
                U.S. GEOLOGICAL SURVEY MODULAR HYDROLOGIC MODEL
                       GROUNDWATER TRANSPORT MODEL (GWT)
                            VERSION 6.2.2 07/30/2021

   MODFLOW 6 compiled Jul 30 2021 14:34:58 with IFORT compiler (ver. 19.10.2)

This software has been approved for release by the U.S. Geological 
Survey (USGS). Although the software has been subjected to rigorous 
review, the USGS reserves the right to update the software as needed 
pursuant to further analysis and review. No warranty, expressed or 
implied, is made by the USGS or the U.S. Government as to the 
functionality of the software and related material nor shall the 
fact of release constitute any such warranty. Furthermore, the 
software is released on condition that neither the USGS nor the U.S. 
Government shall be held liable for any damages resulting from its 
authorized or unauthorized use. Also refer to the USGS Water 
Resources Software User Rights Notice for complete use, copyright, 
and distribution information.


System command used to initiate simulation:
mf6

MODFLOW was compiled using uniform precision.

Real Variables
  KIND: 8
  TINY (smallest non-zero value):    2.225074-308
  HUGE (largest value):    1.797693+308
  PRECISION: 15
  BIT SIZE: 64

Integer Variables
  KIND: 4
  HUGE (largest value): 2147483647
  BIT SIZE: 32

Long Integer Variables
  KIND: 8
  HUGE (largest value): 9223372036854775807
  BIT SIZE: 64

Logical Variables
  KIND: 4
  BIT SIZE: 32
 

 OPENED .\trans.dis
 FILE TYPE:DIS6                   UNIT 1005   STATUS:OLD                 
 FORMAT:FORMATTED              ACCESS:SEQUENTIAL          
 ACTION:READ                


 OPENED .\trans.ic
 FILE TYPE:IC6                    UNIT 1006   STATUS:OLD                 
 FORMAT:FORMATTED              ACCESS:SEQUENTIAL          
 ACTION:READ                


 OPENED .\trans.mst
 FILE TYPE:MST6                   UNIT 1007   STATUS:OLD                 
 FORMAT:FORMATTED              ACCESS:SEQUENTIAL          
 ACTION:READ                


 OPENED .\trans.adv
 FILE TYPE:ADV6                   UNIT 1008   STATUS:OLD                 
 FORMAT:FORMATTED              ACCESS:SEQUENTIAL          
 ACTION:READ                


 OPENED .\trans.dsp
 FILE TYPE:DSP6                   UNIT 1009   STATUS:OLD                 
 FORMAT:FORMATTED              ACCESS:SEQUENTIAL          
 ACTION:READ                


 OPENED .\trans.fmi
 FILE TYPE:FMI6                   UNIT 1010   STATUS:OLD                 
 FORMAT:FORMATTED              ACCESS:SEQUENTIAL          
 ACTION:READ                


 OPENED .\trans.sft
 FILE TYPE:SFT6                   UNIT 1011   STATUS:OLD                 
 FORMAT:FORMATTED              ACCESS:SEQUENTIAL          
 ACTION:READ                


 OPENED .\trans.ssm
 FILE TYPE:SSM6                   UNIT 1012   STATUS:OLD                 
 FORMAT:FORMATTED              ACCESS:SEQUENTIAL          
 ACTION:READ                


 OPENED .\trans.oc
 FILE TYPE:OC6                    UNIT 1013   STATUS:OLD                 
 FORMAT:FORMATTED              ACCESS:SEQUENTIAL          
 ACTION:READ                


 OPENED .\trans.obs
 FILE TYPE:OBS6                   UNIT 1014   STATUS:OLD                 
 FORMAT:FORMATTED              ACCESS:SEQUENTIAL          
 ACTION:READ                

 NAMEFILE OPTIONS:
    FLOWS WILL BE SAVED TO BUDGET FILE SPECIFIED IN OUTPUT CONTROL

 DIS -- STRUCTURED GRID DISCRETIZATION PACKAGE, VERSION 2 : 3/27/2014 - INPUT READ FROM UNIT 1005


 # File generated by Flopy version 3.3.5 on 01/26/2022 at 09:22:44.
 PROCESSING DISCRETIZATION OPTIONS
    UNKNOWN UNIT: 
    M
    SETTING TO: 
    UNDEFINED
 END OF DISCRETIZATION OPTIONS
 MODEL LENGTH UNIT IS UNDEFINED
 PROCESSING DISCRETIZATION DIMENSIONS
    NLAY =      80
    NROW =       1
    NCOL =     400
 END OF DISCRETIZATION DIMENSIONS
 PROCESSING GRIDDATA

                     DELR =   25.00000    

                     DELC =   1.000000    

 TOP ELEVATION OF LAYER 1 =   2000.000    

   MODEL LAYER BOTTOM EL. =   1975.000     FOR LAYER 1

   MODEL LAYER BOTTOM EL. =   1950.000     FOR LAYER 2

   MODEL LAYER BOTTOM EL. =   1925.000     FOR LAYER 3

   MODEL LAYER BOTTOM EL. =   1900.000     FOR LAYER 4

   MODEL LAYER BOTTOM EL. =   1875.000     FOR LAYER 5

   MODEL LAYER BOTTOM EL. =   1850.000     FOR LAYER 6

   MODEL LAYER BOTTOM EL. =   1825.000     FOR LAYER 7

   MODEL LAYER BOTTOM EL. =   1800.000     FOR LAYER 8

   MODEL LAYER BOTTOM EL. =   1775.000     FOR LAYER 9

   MODEL LAYER BOTTOM EL. =   1750.000     FOR LAYER 10

   MODEL LAYER BOTTOM EL. =   1725.000     FOR LAYER 11

   MODEL LAYER BOTTOM EL. =   1700.000     FOR LAYER 12

   MODEL LAYER BOTTOM EL. =   1675.000     FOR LAYER 13

   MODEL LAYER BOTTOM EL. =   1650.000     FOR LAYER 14

   MODEL LAYER BOTTOM EL. =   1625.000     FOR LAYER 15

   MODEL LAYER BOTTOM EL. =   1600.000     FOR LAYER 16

   MODEL LAYER BOTTOM EL. =   1575.000     FOR LAYER 17

   MODEL LAYER BOTTOM EL. =   1550.000     FOR LAYER 18

   MODEL LAYER BOTTOM EL. =   1525.000     FOR LAYER 19

   MODEL LAYER BOTTOM EL. =   1500.000     FOR LAYER 20

   MODEL LAYER BOTTOM EL. =   1475.000     FOR LAYER 21

   MODEL LAYER BOTTOM EL. =   1450.000     FOR LAYER 22

   MODEL LAYER BOTTOM EL. =   1425.000     FOR LAYER 23

   MODEL LAYER BOTTOM EL. =   1400.000     FOR LAYER 24

   MODEL LAYER BOTTOM EL. =   1375.000     FOR LAYER 25

   MODEL LAYER BOTTOM EL. =   1350.000     FOR LAYER 26

   MODEL LAYER BOTTOM EL. =   1325.000     FOR LAYER 27

   MODEL LAYER BOTTOM EL. =   1300.000     FOR LAYER 28

   MODEL LAYER BOTTOM EL. =   1275.000     FOR LAYER 29

   MODEL LAYER BOTTOM EL. =   1250.000     FOR LAYER 30

   MODEL LAYER BOTTOM EL. =   1225.000     FOR LAYER 31

   MODEL LAYER BOTTOM EL. =   1200.000     FOR LAYER 32

   MODEL LAYER BOTTOM EL. =   1175.000     FOR LAYER 33

   MODEL LAYER BOTTOM EL. =   1150.000     FOR LAYER 34

   MODEL LAYER BOTTOM EL. =   1125.000     FOR LAYER 35

   MODEL LAYER BOTTOM EL. =   1100.000     FOR LAYER 36

   MODEL LAYER BOTTOM EL. =   1075.000     FOR LAYER 37

   MODEL LAYER BOTTOM EL. =   1050.000     FOR LAYER 38

   MODEL LAYER BOTTOM EL. =   1025.000     FOR LAYER 39

   MODEL LAYER BOTTOM EL. =   1000.000     FOR LAYER 40

   MODEL LAYER BOTTOM EL. =   975.0000     FOR LAYER 41

   MODEL LAYER BOTTOM EL. =   950.0000     FOR LAYER 42

   MODEL LAYER BOTTOM EL. =   925.0000     FOR LAYER 43

   MODEL LAYER BOTTOM EL. =   900.0000     FOR LAYER 44

   MODEL LAYER BOTTOM EL. =   875.0000     FOR LAYER 45

   MODEL LAYER BOTTOM EL. =   850.0000     FOR LAYER 46

   MODEL LAYER BOTTOM EL. =   825.0000     FOR LAYER 47

   MODEL LAYER BOTTOM EL. =   800.0000     FOR LAYER 48

   MODEL LAYER BOTTOM EL. =   775.0000     FOR LAYER 49

   MODEL LAYER BOTTOM EL. =   750.0000     FOR LAYER 50

   MODEL LAYER BOTTOM EL. =   725.0000     FOR LAYER 51

   MODEL LAYER BOTTOM EL. =   700.0000     FOR LAYER 52

   MODEL LAYER BOTTOM EL. =   675.0000     FOR LAYER 53

   MODEL LAYER BOTTOM EL. =   650.0000     FOR LAYER 54

   MODEL LAYER BOTTOM EL. =   625.0000     FOR LAYER 55

   MODEL LAYER BOTTOM EL. =   600.0000     FOR LAYER 56

   MODEL LAYER BOTTOM EL. =   575.0000     FOR LAYER 57

   MODEL LAYER BOTTOM EL. =   550.0000     FOR LAYER 58

   MODEL LAYER BOTTOM EL. =   525.0000     FOR LAYER 59

   MODEL LAYER BOTTOM EL. =   500.0000     FOR LAYER 60

   MODEL LAYER BOTTOM EL. =   475.0000     FOR LAYER 61

   MODEL LAYER BOTTOM EL. =   450.0000     FOR LAYER 62

   MODEL LAYER BOTTOM EL. =   425.0000     FOR LAYER 63

   MODEL LAYER BOTTOM EL. =   400.0000     FOR LAYER 64

   MODEL LAYER BOTTOM EL. =   375.0000     FOR LAYER 65

   MODEL LAYER BOTTOM EL. =   350.0000     FOR LAYER 66

   MODEL LAYER BOTTOM EL. =   325.0000     FOR LAYER 67

   MODEL LAYER BOTTOM EL. =   300.0000     FOR LAYER 68

   MODEL LAYER BOTTOM EL. =   275.0000     FOR LAYER 69

   MODEL LAYER BOTTOM EL. =   250.0000     FOR LAYER 70

   MODEL LAYER BOTTOM EL. =   225.0000     FOR LAYER 71

   MODEL LAYER BOTTOM EL. =   200.0000     FOR LAYER 72

   MODEL LAYER BOTTOM EL. =   175.0000     FOR LAYER 73

   MODEL LAYER BOTTOM EL. =   150.0000     FOR LAYER 74

   MODEL LAYER BOTTOM EL. =   125.0000     FOR LAYER 75

   MODEL LAYER BOTTOM EL. =   100.0000     FOR LAYER 76

   MODEL LAYER BOTTOM EL. =   75.00000     FOR LAYER 77

   MODEL LAYER BOTTOM EL. =   50.00000     FOR LAYER 78

   MODEL LAYER BOTTOM EL. =   25.00000     FOR LAYER 79

   MODEL LAYER BOTTOM EL. =   0.000000     FOR LAYER 80
 END PROCESSING GRIDDATA

 FMI -- FLOW MODEL INTERFACE, VERSION 1, 8/29/2017 INPUT READ FROM UNIT 1010


 # File generated by Flopy version 3.3.5 on 01/26/2022 at 09:22:44.
 PROCESSING FMI OPTIONS
    MASS WILL BE ADDED OR REMOVED TO COMPENSATE FOR FLOW IMBALANCE.
 END OF FMI OPTIONS
 PROCESSING FMI PACKAGEDATA

 OPENED ../mf6gwf/flow.hds
 FILE TYPE:DATA(BINARY)   UNIT 1016   STATUS:UNKNOWN             
 FORMAT:UNFORMATTED            ACCESS:STREAM              
 ACTION:READWRITE           

Reading binary file to determine number of records per time step.
Detected 80 unique records in binary file.

 OPENED ../mf6gwf/flow.bud
 FILE TYPE:DATA(BINARY)   UNIT 1017   STATUS:UNKNOWN             
 FORMAT:UNFORMATTED            ACCESS:STREAM              
 ACTION:READWRITE           

Reading budget file to determine number of terms per time step.
    730.000        FLOW-JA-FACE                 
    730.000          DATA-SPDIS NPF             
    730.000            DATA-SAT NPF             
    730.000                 RCH RCH-1           
    730.000                 CHD CHD-1           
    730.000                 SFR SFR-1           
Detected 6 unique flow terms in budget file.

 OPENED ../mf6gwf/ex-gwt-keating.sfr.bud
 FILE TYPE:DATA(BINARY)   UNIT 1018   STATUS:UNKNOWN             
 FORMAT:UNFORMATTED            ACCESS:STREAM              
 ACTION:READWRITE           

Reading budget file to determine number of terms per time step.
    730.000        FLOW-JA-FACE SFR-1           
    730.000                 GWF FLOW            
    730.000            RAINFALL SFR-1           
    730.000         EVAPORATION SFR-1           
    730.000              RUNOFF SFR-1           
    730.000          EXT-INFLOW SFR-1           
    730.000         EXT-OUTFLOW SFR-1           
    730.000             STORAGE SFR-1           
    730.000           AUXILIARY SFR-1           
Detected 9 unique flow terms in budget file.
    730.000        FLOW-JA-FACE SFR-1           
    730.000                 GWF FLOW            
    730.000            RAINFALL SFR-1           
    730.000         EVAPORATION SFR-1           
    730.000              RUNOFF SFR-1           
    730.000          EXT-INFLOW SFR-1           
    730.000         EXT-OUTFLOW SFR-1           
    730.000             STORAGE SFR-1           
    730.000           AUXILIARY SFR-1           
 END OF FMI PACKAGEDATA
 # File generated by Flopy version 3.3.5 on 01/26/2022 at 09:22:44.
 PROCESSING DISPERSION OPTIONS
    XT3D FORMULATION HAS BEEN SHUT OFF.
 END OF DISPERSION OPTIONS

 SFT   -- SFT PACKAGE, VERSION 8, 2/22/2014 INPUT READ FROM UNIT 1011
 # File generated by Flopy version 3.3.5 on 01/26/2022 at 09:22:44.

 PROCESSING SFT OPTIONS
    THIS SFT PACKAGE CORRESPONDS TO A GWF PACKAGE WITH THE NAME SFR-1
    SFT BOUNDARIES HAVE NAMES IN LAST COLUMN.
    LISTS OF SFT CELLS WILL BE PRINTED.
    SFT CONCENTRATIONS WILL BE PRINTED TO LISTING FILE.
    SFT FLOWS WILL BE PRINTED TO LISTING FILE.
    FLOWS WILL BE SAVED TO BUDGET FILE SPECIFIED IN OUTPUT CONTROL

 OPENED ex-gwt-keating.sft.bin
 FILE TYPE:DATA(BINARY)   UNIT 1019   STATUS:REPLACE             
 FORMAT:UNFORMATTED            ACCESS:STREAM              
 ACTION:READWRITE           

    SFT CONCENTRATION  WILL BE SAVED TO FILE: ex-gwt-keating.sft.bin
    OPENED ON UNIT:    1019

 OPENED ex-gwt-keating.sft.bud
 FILE TYPE:DATA(BINARY)   UNIT 1020   STATUS:REPLACE             
 FORMAT:UNFORMATTED            ACCESS:STREAM              
 ACTION:READWRITE           

    SFT BUDGET  WILL BE SAVED TO FILE: ex-gwt-keating.sft.bud
    OPENED ON UNIT:    1020

 OPENED ex-gwt-keating.sft.obs
 FILE TYPE:OBS   UNIT 1021   STATUS:OLD                 
 FORMAT:FORMATTED              ACCESS:SEQUENTIAL          
 ACTION:READ                

 END OF SFT OPTIONS

PROCESSING SFT INFORMATION FOR SFR-1           
  IDENTIFYING FLOW TERMS IN SFR PACKAGE
  NUMBER OF SFR = 24
  TERM 1 = FLOW-JA-FACE
   MAX NO. OF ENTRIES = 46
  TERM 2 = GWF
   MAX NO. OF ENTRIES = 24
  TERM 3 = RAINFALL
   MAX NO. OF ENTRIES = 24
  TERM 4 = EVAPORATION
   MAX NO. OF ENTRIES = 24
  TERM 5 = RUNOFF
   MAX NO. OF ENTRIES = 24
  TERM 6 = EXT-INFLOW
   MAX NO. OF ENTRIES = 24
  TERM 7 = EXT-OUTFLOW
   MAX NO. OF ENTRIES = 24
  TERM 8 = STORAGE
   MAX NO. OF ENTRIES = 24
  TERM 9 = AUXILIARY
   MAX NO. OF ENTRIES = 24
DONE PROCESSING SFT INFORMATION


SETTING DIMENSIONS FOR PACKAGE SFR-1           
  NUMBER OF CONTROL VOLUMES = 24
  MAXBOUND = 24
  NBOUND = 24
  SFT SOLVED AS PART OF GWT MATRIX EQUATIONS
DONE SETTING DIMENSIONS FOR SFT



 PROCESSING SFT PACKAGEDATA
 END OF SFT PACKAGEDATA

 IC -- INITIAL CONDITIONS PACKAGE, VERSION 8, 3/28/2015 INPUT READ FROM UNIT 1006
 # File generated by Flopy version 3.3.5 on 01/26/2022 at 09:22:44.
 PROCESSING GRIDDATA

 INITIAL CONCENTRATION =   0.000000    
 END PROCESSING GRIDDATA

 MST -- MOBILE STORAGE AND TRANSFER PACKAGE, VERSION 1, 7/29/2020 INPUT READ FROM UNIT 1007


 # File generated by Flopy version 3.3.5 on 01/26/2022 at 09:22:44.
 PROCESSING MOBILE STORAGE AND TRANSFER OPTIONS
 END OF MOBILE STORAGE AND TRANSFER OPTIONS
 PROCESSING GRIDDATA

   MOBILE DOMAIN POROSITY =  0.1000000    
 END PROCESSING GRIDDATA

 ADV-- ADVECTION PACKAGE, VERSION 1, 8/25/2017 INPUT READ FROM UNIT 1008


 # File generated by Flopy version 3.3.5 on 01/26/2022 at 09:22:44.
 PROCESSING ADVECTION OPTIONS
    ADVECTION WEIGHTING SCHEME HAS BEEN SET TO: UPSTREAM
 SELECTED ADVECTION SCHEME RESULTS IN AN ASYMMETRIC MATRIX.
 END OF ADVECTION OPTIONS

 DSP-- DISPERSION PACKAGE, VERSION 1, 1/24/2018 INPUT READ FROM UNIT 1009


 PROCESSING GRIDDATA

                      ALH =   1.000000    

                     ATH1 =   1.000000    

                      ATV =   1.000000    
 END PROCESSING GRIDDATA

 SSM -- SOURCE-SINK MIXING PACKAGE, VERSION 1, 8/25/2017 INPUT READ FROM UNIT 1012


 # File generated by Flopy version 3.3.5 on 01/26/2022 at 09:22:44.
 PROCESSING SSM OPTIONS
 END OF SSM OPTIONS
 PROCESSING SOURCES
 AUX SOURCE DETECTED.
    USING AUX COLUMN 1 IN PACKAGE RCH-1
 AUX SOURCE DETECTED.
    USING AUX COLUMN 1 IN PACKAGE SFR-1
 END PROCESSING SOURCES

The observation utility is active for "TRANS"
 # File generated by Flopy version 3.3.5 on 01/26/2022 at 09:22:44.

Processing observation options:

Text output number of digits of precision set to: 10
The PRINT_INPUT option has been specified.


 OBSERVATIONS READ FROM FILE "trans.obs"
 ----------------------------------------------------------------------------------------------------------------------------------------------------------------------------------------------------------------------------
 NAME                                     TYPE                                       TIME         LOCATION DATA                              OUTPUT FILENAME                                                                 
 ----------------------------------------------------------------------------------------------------------------------------------------------------------------------------------------------------------------------------
 OBS1                                     CONTINUOUS  CONCENTRATION                  ALL TIMES    "49 1 119"                                 trans.obs.csv                                                                   
 OBS2                                     CONTINUOUS  CONCENTRATION                  ALL TIMES    "77 1 359"                                 trans.obs.csv                                                                   
 ----------------------------------------------------------------------------------------------------------------------------------------------------------------------------------------------------------------------------


      THE LAST TIME STEP WILL BE PRINTED
      THE LAST TIME STEP WILL BE PRINTED
 # File generated by Flopy version 3.3.5 on 01/26/2022 at 09:22:44.

 PROCESSING OC OPTIONS

    BUDGET INFORMATION WILL BE WRITTEN TO:
      UNIT NUMBER: 1023
      FILE NAME: trans.cbc

 OPENED trans.cbc
 FILE TYPE:DATA(BINARY)   UNIT 1023   STATUS:REPLACE             
 FORMAT:UNFORMATTED            ACCESS:STREAM              
 ACTION:READWRITE           

    CONCENTRATION INFORMATION WILL BE WRITTEN TO:
      UNIT NUMBER: 1024
      FILE NAME: trans.ucn

 OPENED trans.ucn
 FILE TYPE:DATA(BINARY)   UNIT 1024   STATUS:REPLACE             
 FORMAT:UNFORMATTED            ACCESS:STREAM              
 ACTION:READWRITE           

 END OF OC OPTIONS

The observation utility is active for "SFR-1"
 # File generated by Flopy version 3.3.5 on 01/26/2022 at 09:22:44.

Processing observation options:

Text output number of digits of precision set to:  7
The PRINT_INPUT option has been specified.


 OBSERVATIONS READ FROM FILE "ex-gwt-keating.sft.obs"
 ----------------------------------------------------------------------------------------------------------------------------------------------------------------------------------------------------------------------------
 NAME                                     TYPE                                       TIME         LOCATION DATA                              OUTPUT FILENAME                                                                 
 ----------------------------------------------------------------------------------------------------------------------------------------------------------------------------------------------------------------------------
 SFTREACH1LEAKAGE                         CONTINUOUS  CONCENTRATION                  ALL TIMES    "SFTREACH1"                                ex-gwt-keating.sft.obs.csv                                                      
 SFTREACH12LEAKAGE                        CONTINUOUS  CONCENTRATION                  ALL TIMES    "SFTREACH12"                               ex-gwt-keating.sft.obs.csv                                                      
 SFTREACH24LEAKAGE                        CONTINUOUS  CONCENTRATION                  ALL TIMES    "SFTREACH24"                               ex-gwt-keating.sft.obs.csv                                                      
 ----------------------------------------------------------------------------------------------------------------------------------------------------------------------------------------------------------------------------



 APT -- ADVANCED PACKAGE TRANSPORT, VERSION 1, 3/5/2020 INPUT READ FROM UNIT 1011



start timestep kper="1" kstp="1" mode="normal"


 BEGIN READING OUTPUT CONTROL FOR STRESS PERIOD 1
      THE FOLLOWING STEPS WILL BE SAVED: 10 
      THE LAST TIME STEP WILL BE SAVED
      THE FOLLOWING FREQUENCY WILL BE SAVED: 10
      THE LAST TIME STEP WILL BE PRINTED
      ALL TIME STEPS WILL BE PRINTED

 END READING OUTPUT CONTROL FOR STRESS PERIOD 1

 SFT PACKAGE (SFR-1) DATA FOR PERIOD      1
 ---------------------------------------------------------------
   NUMBER   KEYWORD                  VALUE 1         VALUE 2    
 ---------------------------------------------------------------
     1      INFLOW                     1.0                      
 ---------------------------------------------------------------



 FMI READING BUDGET TERMS FOR KSTP 1 KPER 1
    730.000        FLOW-JA-FACE                 
    730.000          DATA-SPDIS NPF             
    730.000            DATA-SAT NPF             
    730.000                 RCH RCH-1           
    730.000                 CHD CHD-1           
    730.000                 SFR SFR-1           

 FMI READING HEAD FOR KSTP 1 KPER 1

 SFR-1 SETTING BUDGET TERMS FOR KSTP 1 AND KPER 1 TO BUDGET FILE TERMS FROM KSTP 1 AND KPER 1

 SFT PACKAGE (SFR-1) FLOW RATES   PERIOD      1   STEP        1
 ----------------------------------------------------------------------------------------
   NUMBER   CELLID                    RATE       NAME                                    
 ----------------------------------------------------------------------------------------
     1      (1,1,169)             21.929568      SFTREACH1                               
     2      (1,1,170)             21.270432      SFTREACH2                               
     3      (1,1,171)             0.0000000      SFTREACH3                               
     4      (1,1,172)             0.0000000      SFTREACH4                               
     5      (1,1,173)             0.0000000      SFTREACH5                               
     6      (1,1,174)             0.0000000      SFTREACH6                               
     7      (1,1,175)             0.0000000      SFTREACH7                               
     8      (1,1,176)             0.0000000      SFTREACH8                               
     9      (1,1,177)             0.0000000      SFTREACH9                               
     10     (1,1,178)             0.0000000      SFTREACH10                              
     11     (1,1,179)             0.0000000      SFTREACH11                              
     12     (1,1,180)             0.0000000      SFTREACH12                              
     13     (1,1,181)             0.0000000      SFTREACH13                              
     14     (1,1,182)             0.0000000      SFTREACH14                              
     15     (1,1,183)             0.0000000      SFTREACH15                              
     16     (1,1,184)             0.0000000      SFTREACH16                              
     17     (1,1,185)             0.0000000      SFTREACH17                              
     18     (1,1,186)             0.0000000      SFTREACH18                              
     19     (1,1,187)             0.0000000      SFTREACH19                              
     20     (1,1,188)             0.0000000      SFTREACH20                              
     21     (1,1,189)             0.0000000      SFTREACH21                              
     22     (1,1,190)             0.0000000      SFTREACH22                              
     23     (1,1,191)             0.0000000      SFTREACH23                              
     24     (1,1,192)             0.0000000      SFTREACH24                              
 ----------------------------------------------------------------------------------------




 SFR-1 PACKAGE - SUMMARY OF FLOWS FOR EACH CONTROL VOLUME   PERIOD      1   STEP        1
 ----------------------------------------------------------------------------------------------------------------------------------------------------------------------
                                                                                                                                                             PERCENT   
   NUMBER      INFLOW      OUTFLOW        GWF        RAINFALL   EVAPORATION     RUNOFF     EXT INFLOW  EXT OUTFLOW    STORAGE      CONSTANT     IN - OUT    DIFFERENCE 
 ----------------------------------------------------------------------------------------------------------------------------------------------------------------------
     1       0.0000      -21.270      -21.930       0.0000       0.0000       0.0000       43.200       0.0000      -2.77556E-17  0.0000      -7.10543E-15 -1.64477E-14
     2       21.270       0.0000      -21.270       0.0000       0.0000       0.0000       0.0000       0.0000       0.0000       0.0000       3.55271E-15  1.67026E-14
     3       0.0000       0.0000       0.0000       0.0000       0.0000       0.0000       0.0000       0.0000       0.0000       0.0000       0.0000       0.0000     
     4       0.0000       0.0000       0.0000       0.0000       0.0000       0.0000       0.0000       0.0000       0.0000       0.0000       0.0000       0.0000     
     5       0.0000       0.0000       0.0000       0.0000       0.0000       0.0000       0.0000       0.0000       0.0000       0.0000       0.0000       0.0000     
     6       0.0000       0.0000       0.0000       0.0000       0.0000       0.0000       0.0000       0.0000       0.0000       0.0000       0.0000       0.0000     
     7       0.0000       0.0000       0.0000       0.0000       0.0000       0.0000       0.0000       0.0000       0.0000       0.0000       0.0000       0.0000     
     8       0.0000       0.0000       0.0000       0.0000       0.0000       0.0000       0.0000       0.0000       0.0000       0.0000       0.0000       0.0000     
     9       0.0000       0.0000       0.0000       0.0000       0.0000       0.0000       0.0000       0.0000       0.0000       0.0000       0.0000       0.0000     
     10      0.0000       0.0000       0.0000       0.0000       0.0000       0.0000       0.0000       0.0000       0.0000       0.0000       0.0000       0.0000     
     11      0.0000       0.0000       0.0000       0.0000       0.0000       0.0000       0.0000       0.0000       0.0000       0.0000       0.0000       0.0000     
     12      0.0000       0.0000       0.0000       0.0000       0.0000       0.0000       0.0000       0.0000       0.0000       0.0000       0.0000       0.0000     
     13      0.0000       0.0000       0.0000       0.0000       0.0000       0.0000       0.0000       0.0000       0.0000       0.0000       0.0000       0.0000     
     14      0.0000       0.0000       0.0000       0.0000       0.0000       0.0000       0.0000       0.0000       0.0000       0.0000       0.0000       0.0000     
     15      0.0000       0.0000       0.0000       0.0000       0.0000       0.0000       0.0000       0.0000       0.0000       0.0000       0.0000       0.0000     
     16      0.0000       0.0000       0.0000       0.0000       0.0000       0.0000       0.0000       0.0000       0.0000       0.0000       0.0000       0.0000     
     17      0.0000       0.0000       0.0000       0.0000       0.0000       0.0000       0.0000       0.0000       0.0000       0.0000       0.0000       0.0000     
     18      0.0000       0.0000       0.0000       0.0000       0.0000       0.0000       0.0000       0.0000       0.0000       0.0000       0.0000       0.0000     
     19      0.0000       0.0000       0.0000       0.0000       0.0000       0.0000       0.0000       0.0000       0.0000       0.0000       0.0000       0.0000     
     20      0.0000       0.0000       0.0000       0.0000       0.0000       0.0000       0.0000       0.0000       0.0000       0.0000       0.0000       0.0000     
     21      0.0000       0.0000       0.0000       0.0000       0.0000       0.0000       0.0000       0.0000       0.0000       0.0000       0.0000       0.0000     
     22      0.0000       0.0000       0.0000       0.0000       0.0000       0.0000       0.0000       0.0000       0.0000       0.0000       0.0000       0.0000     
     23      0.0000       0.0000       0.0000       0.0000       0.0000       0.0000       0.0000       0.0000       0.0000       0.0000       0.0000       0.0000     
     24      0.0000       0.0000       0.0000       0.0000       0.0000       0.0000       0.0000       0.0000       0.0000       0.0000       0.0000       0.0000     
 ----------------------------------------------------------------------------------------------------------------------------------------------------------------------




  SFR-1 BUDGET FOR ENTIRE MODEL AT END OF TIME STEP    1, STRESS PERIOD   1
  ------------------------------------------------------------------------------

     CUMULATIVE SFR-1      M       RATES FOR THIS TIME STEP      M/T
     ------------------                 ------------------------

           IN:                                      IN:
           ---                                      ---
                 GWF =           0.0000                   GWF =           0.0000
            RAINFALL =           0.0000              RAINFALL =           0.0000
         EVAPORATION =           0.0000           EVAPORATION =           0.0000
              RUNOFF =           0.0000                RUNOFF =           0.0000
          EXT-INFLOW =         432.0000            EXT-INFLOW =          43.2000
         EXT-OUTFLOW =           0.0000           EXT-OUTFLOW =           0.0000
             STORAGE =           0.0000               STORAGE =           0.0000
            CONSTANT =           0.0000              CONSTANT =           0.0000

            TOTAL IN =         432.0000              TOTAL IN =          43.2000

          OUT:                                     OUT:
          ----                                     ----
                 GWF =         432.0000                   GWF =          43.2000
            RAINFALL =           0.0000              RAINFALL =           0.0000
         EVAPORATION =           0.0000           EVAPORATION =           0.0000
              RUNOFF =           0.0000                RUNOFF =           0.0000
          EXT-INFLOW =           0.0000            EXT-INFLOW =           0.0000
         EXT-OUTFLOW =           0.0000           EXT-OUTFLOW =           0.0000
             STORAGE =       2.7756E-16               STORAGE =       2.7756E-17
            CONSTANT =           0.0000              CONSTANT =           0.0000

           TOTAL OUT =         432.0000             TOTAL OUT =          43.2000

            IN - OUT =           0.0000              IN - OUT =           0.0000

 PERCENT DISCREPANCY =           0.00     PERCENT DISCREPANCY =           0.00



  MASS BUDGET FOR ENTIRE MODEL AT END OF TIME STEP    1, STRESS PERIOD   1
  ---------------------------------------------------------------------------------------------------

     CUMULATIVE MASS      M       RATES FOR THIS TIME STEP      M/T          PACKAGE NAME    
     ------------------                 ------------------------                     ----------------

           IN:                                      IN:
           ---                                      ---
     STORAGE-AQUEOUS =           0.0000       STORAGE-AQUEOUS =           0.0000     MST             
               RCH-1 =           0.0000                 RCH-1 =           0.0000     SSM             
               CHD-1 =           0.0000                 CHD-1 =           0.0000     SSM             
     FLOW-CORRECTION =       9.8586E-09       FLOW-CORRECTION =       9.8586E-10                     
                 SFT =         432.0000                   SFT =          43.2000     SFR-1           

            TOTAL IN =         432.0000              TOTAL IN =          43.2000

          OUT:                                     OUT:
          ----                                     ----
     STORAGE-AQUEOUS =         432.0000       STORAGE-AQUEOUS =          43.2000     MST             
               RCH-1 =           0.0000                 RCH-1 =           0.0000     SSM             
               CHD-1 =      1.0203E-115                 CHD-1 =      1.0203E-116     SSM             
     FLOW-CORRECTION =       7.3955E-08       FLOW-CORRECTION =       7.3955E-09                     
                 SFT =           0.0000                   SFT =           0.0000     SFR-1           

           TOTAL OUT =         432.0000             TOTAL OUT =          43.2000

            IN - OUT =       1.4815E-07              IN - OUT =       1.4815E-08

 PERCENT DISCREPANCY =           0.00     PERCENT DISCREPANCY =           0.00




         TIME SUMMARY AT END OF TIME STEP    1 IN STRESS PERIOD    1
                    SECONDS     MINUTES      HOURS       DAYS        YEARS
                    -----------------------------------------------------------
   TIME STEP LENGTH 8.64000E+05  14400.      240.00      10.000     2.73785E-02
 STRESS PERIOD TIME 8.64000E+05  14400.      240.00      10.000     2.73785E-02
         TOTAL TIME 8.64000E+05  14400.      240.00      10.000     2.73785E-02


end timestep


start timestep kper="1" kstp="2" mode="normal"


 FMI SETTING BUDGET TERMS FOR KSTP 2 AND KPER 1 TO BUDGET FILE TERMS FROM KSTP 1 AND KPER 1

 FMI SETTING HEAD FOR KSTP 2 AND KPER 1 TO BINARY FILE HEADS FROM KSTP 1 AND KPER 1

 SFR-1 SETTING BUDGET TERMS FOR KSTP 2 AND KPER 1 TO BUDGET FILE TERMS FROM KSTP 1 AND KPER 1

 SFT PACKAGE (SFR-1) FLOW RATES   PERIOD      1   STEP        2
 ----------------------------------------------------------------------------------------
   NUMBER   CELLID                    RATE       NAME                                    
 ----------------------------------------------------------------------------------------
     1      (1,1,169)             21.929568      SFTREACH1                               
     2      (1,1,170)             21.270432      SFTREACH2                               
     3      (1,1,171)             0.0000000      SFTREACH3                               
     4      (1,1,172)             0.0000000      SFTREACH4                               
     5      (1,1,173)             0.0000000      SFTREACH5                               
     6      (1,1,174)             0.0000000      SFTREACH6                               
     7      (1,1,175)             0.0000000      SFTREACH7                               
     8      (1,1,176)             0.0000000      SFTREACH8                               
     9      (1,1,177)             0.0000000      SFTREACH9                               
     10     (1,1,178)             0.0000000      SFTREACH10                              
     11     (1,1,179)             0.0000000      SFTREACH11                              
     12     (1,1,180)             0.0000000      SFTREACH12                              
     13     (1,1,181)             0.0000000      SFTREACH13                              
     14     (1,1,182)             0.0000000      SFTREACH14                              
     15     (1,1,183)             0.0000000      SFTREACH15                              
     16     (1,1,184)             0.0000000      SFTREACH16                              
     17     (1,1,185)             0.0000000      SFTREACH17                              
     18     (1,1,186)             0.0000000      SFTREACH18                              
     19     (1,1,187)             0.0000000      SFTREACH19                              
     20     (1,1,188)             0.0000000      SFTREACH20                              
     21     (1,1,189)             0.0000000      SFTREACH21                              
     22     (1,1,190)             0.0000000      SFTREACH22                              
     23     (1,1,191)             0.0000000      SFTREACH23                              
     24     (1,1,192)             0.0000000      SFTREACH24                              
 ----------------------------------------------------------------------------------------




 SFR-1 PACKAGE - SUMMARY OF FLOWS FOR EACH CONTROL VOLUME   PERIOD      1   STEP        2
 ----------------------------------------------------------------------------------------------------------------------------------------------------------------------
                                                                                                                                                             PERCENT   
   NUMBER      INFLOW      OUTFLOW        GWF        RAINFALL   EVAPORATION     RUNOFF     EXT INFLOW  EXT OUTFLOW    STORAGE      CONSTANT     IN - OUT    DIFFERENCE 
 ----------------------------------------------------------------------------------------------------------------------------------------------------------------------
     1       0.0000      -21.270      -21.930       0.0000       0.0000       0.0000       43.200       0.0000       0.0000       0.0000      -7.10543E-15 -1.64477E-14
     2       21.270       0.0000      -21.270       0.0000       0.0000       0.0000       0.0000       0.0000       0.0000       0.0000       3.55271E-15  1.67026E-14
     3       0.0000       0.0000       0.0000       0.0000       0.0000       0.0000       0.0000       0.0000       0.0000       0.0000       0.0000       0.0000     
     4       0.0000       0.0000       0.0000       0.0000       0.0000       0.0000       0.0000       0.0000       0.0000       0.0000       0.0000       0.0000     
     5       0.0000       0.0000       0.0000       0.0000       0.0000       0.0000       0.0000       0.0000       0.0000       0.0000       0.0000       0.0000     
     6       0.0000       0.0000       0.0000       0.0000       0.0000       0.0000       0.0000       0.0000       0.0000       0.0000       0.0000       0.0000     
     7       0.0000       0.0000       0.0000       0.0000       0.0000       0.0000       0.0000       0.0000       0.0000       0.0000       0.0000       0.0000     
     8       0.0000       0.0000       0.0000       0.0000       0.0000       0.0000       0.0000       0.0000       0.0000       0.0000       0.0000       0.0000     
     9       0.0000       0.0000       0.0000       0.0000       0.0000       0.0000       0.0000       0.0000       0.0000       0.0000       0.0000       0.0000     
     10      0.0000       0.0000       0.0000       0.0000       0.0000       0.0000       0.0000       0.0000       0.0000       0.0000       0.0000       0.0000     
     11      0.0000       0.0000       0.0000       0.0000       0.0000       0.0000       0.0000       0.0000       0.0000       0.0000       0.0000       0.0000     
     12      0.0000       0.0000       0.0000       0.0000       0.0000       0.0000       0.0000       0.0000       0.0000       0.0000       0.0000       0.0000     
     13      0.0000       0.0000       0.0000       0.0000       0.0000       0.0000       0.0000       0.0000       0.0000       0.0000       0.0000       0.0000     
     14      0.0000       0.0000       0.0000       0.0000       0.0000       0.0000       0.0000       0.0000       0.0000       0.0000       0.0000       0.0000     
     15      0.0000       0.0000       0.0000       0.0000       0.0000       0.0000       0.0000       0.0000       0.0000       0.0000       0.0000       0.0000     
     16      0.0000       0.0000       0.0000       0.0000       0.0000       0.0000       0.0000       0.0000       0.0000       0.0000       0.0000       0.0000     
     17      0.0000       0.0000       0.0000       0.0000       0.0000       0.0000       0.0000       0.0000       0.0000       0.0000       0.0000       0.0000     
     18      0.0000       0.0000       0.0000       0.0000       0.0000       0.0000       0.0000       0.0000       0.0000       0.0000       0.0000       0.0000     
     19      0.0000       0.0000       0.0000       0.0000       0.0000       0.0000       0.0000       0.0000       0.0000       0.0000       0.0000       0.0000     
     20      0.0000       0.0000       0.0000       0.0000       0.0000       0.0000       0.0000       0.0000       0.0000       0.0000       0.0000       0.0000     
     21      0.0000       0.0000       0.0000       0.0000       0.0000       0.0000       0.0000       0.0000       0.0000       0.0000       0.0000       0.0000     
     22      0.0000       0.0000       0.0000       0.0000       0.0000       0.0000       0.0000       0.0000       0.0000       0.0000       0.0000       0.0000     
     23      0.0000       0.0000       0.0000       0.0000       0.0000       0.0000       0.0000       0.0000       0.0000       0.0000       0.0000       0.0000     
     24      0.0000       0.0000       0.0000       0.0000       0.0000       0.0000       0.0000       0.0000       0.0000       0.0000       0.0000       0.0000     
 ----------------------------------------------------------------------------------------------------------------------------------------------------------------------




  SFR-1 BUDGET FOR ENTIRE MODEL AT END OF TIME STEP    2, STRESS PERIOD   1
  ------------------------------------------------------------------------------

     CUMULATIVE SFR-1      M       RATES FOR THIS TIME STEP      M/T
     ------------------                 ------------------------

           IN:                                      IN:
           ---                                      ---
                 GWF =           0.0000                   GWF =           0.0000
            RAINFALL =           0.0000              RAINFALL =           0.0000
         EVAPORATION =           0.0000           EVAPORATION =           0.0000
              RUNOFF =           0.0000                RUNOFF =           0.0000
          EXT-INFLOW =         864.0000            EXT-INFLOW =          43.2000
         EXT-OUTFLOW =           0.0000           EXT-OUTFLOW =           0.0000
             STORAGE =           0.0000               STORAGE =           0.0000
            CONSTANT =           0.0000              CONSTANT =           0.0000

            TOTAL IN =         864.0000              TOTAL IN =          43.2000

          OUT:                                     OUT:
          ----                                     ----
                 GWF =         864.0000                   GWF =          43.2000
            RAINFALL =           0.0000              RAINFALL =           0.0000
         EVAPORATION =           0.0000           EVAPORATION =           0.0000
              RUNOFF =           0.0000                RUNOFF =           0.0000
          EXT-INFLOW =           0.0000            EXT-INFLOW =           0.0000
         EXT-OUTFLOW =           0.0000           EXT-OUTFLOW =           0.0000
             STORAGE =       2.7756E-16               STORAGE =           0.0000
            CONSTANT =           0.0000              CONSTANT =           0.0000

           TOTAL OUT =         864.0000             TOTAL OUT =          43.2000

            IN - OUT =           0.0000              IN - OUT =           0.0000

 PERCENT DISCREPANCY =           0.00     PERCENT DISCREPANCY =           0.00



  MASS BUDGET FOR ENTIRE MODEL AT END OF TIME STEP    2, STRESS PERIOD   1
  ---------------------------------------------------------------------------------------------------

     CUMULATIVE MASS      M       RATES FOR THIS TIME STEP      M/T          PACKAGE NAME    
     ------------------                 ------------------------                     ----------------

           IN:                                      IN:
           ---                                      ---
     STORAGE-AQUEOUS =           0.0000       STORAGE-AQUEOUS =           0.0000     MST             
               RCH-1 =           0.0000                 RCH-1 =           0.0000     SSM             
               CHD-1 =           0.0000                 CHD-1 =           0.0000     SSM             
     FLOW-CORRECTION =       1.9823E-08       FLOW-CORRECTION =       9.9644E-10                     
                 SFT =         864.0000                   SFT =          43.2000     SFR-1           

            TOTAL IN =         864.0000              TOTAL IN =          43.2000

          OUT:                                     OUT:
          ----                                     ----
     STORAGE-AQUEOUS =         864.0000       STORAGE-AQUEOUS =          43.2000     MST             
               RCH-1 =           0.0000                 RCH-1 =           0.0000     SSM             
               CHD-1 =      1.6019E-113                 CHD-1 =      1.5917E-114     SSM             
     FLOW-CORRECTION =       2.5681E-07       FLOW-CORRECTION =       1.8285E-08                     
                 SFT =           0.0000                   SFT =           0.0000     SFR-1           

           TOTAL OUT =         864.0000             TOTAL OUT =          43.2000

            IN - OUT =       4.7269E-07              IN - OUT =       3.2454E-08

 PERCENT DISCREPANCY =           0.00     PERCENT DISCREPANCY =           0.00




         TIME SUMMARY AT END OF TIME STEP    2 IN STRESS PERIOD    1
                    SECONDS     MINUTES      HOURS       DAYS        YEARS
                    -----------------------------------------------------------
   TIME STEP LENGTH 8.64000E+05  14400.      240.00      10.000     2.73785E-02
 STRESS PERIOD TIME 1.72800E+06  28800.      480.00      20.000     5.47570E-02
         TOTAL TIME 1.72800E+06  28800.      480.00      20.000     5.47570E-02


end timestep


start timestep kper="1" kstp="3" mode="normal"


 FMI SETTING BUDGET TERMS FOR KSTP 3 AND KPER 1 TO BUDGET FILE TERMS FROM KSTP 1 AND KPER 1

 FMI SETTING HEAD FOR KSTP 3 AND KPER 1 TO BINARY FILE HEADS FROM KSTP 1 AND KPER 1

 SFR-1 SETTING BUDGET TERMS FOR KSTP 3 AND KPER 1 TO BUDGET FILE TERMS FROM KSTP 1 AND KPER 1

 SFT PACKAGE (SFR-1) FLOW RATES   PERIOD      1   STEP        3
 ----------------------------------------------------------------------------------------
   NUMBER   CELLID                    RATE       NAME                                    
 ----------------------------------------------------------------------------------------
     1      (1,1,169)             21.929568      SFTREACH1                               
     2      (1,1,170)             21.270432      SFTREACH2                               
     3      (1,1,171)             0.0000000      SFTREACH3                               
     4      (1,1,172)             0.0000000      SFTREACH4                               
     5      (1,1,173)             0.0000000      SFTREACH5                               
     6      (1,1,174)             0.0000000      SFTREACH6                               
     7      (1,1,175)             0.0000000      SFTREACH7                               
     8      (1,1,176)             0.0000000      SFTREACH8                               
     9      (1,1,177)             0.0000000      SFTREACH9                               
     10     (1,1,178)             0.0000000      SFTREACH10                              
     11     (1,1,179)             0.0000000      SFTREACH11                              
     12     (1,1,180)             0.0000000      SFTREACH12                              
     13     (1,1,181)             0.0000000      SFTREACH13                              
     14     (1,1,182)             0.0000000      SFTREACH14                              
     15     (1,1,183)             0.0000000      SFTREACH15                              
     16     (1,1,184)             0.0000000      SFTREACH16                              
     17     (1,1,185)             0.0000000      SFTREACH17                              
     18     (1,1,186)             0.0000000      SFTREACH18                              
     19     (1,1,187)             0.0000000      SFTREACH19                              
     20     (1,1,188)             0.0000000      SFTREACH20                              
     21     (1,1,189)             0.0000000      SFTREACH21                              
     22     (1,1,190)             0.0000000      SFTREACH22                              
     23     (1,1,191)             0.0000000      SFTREACH23                              
     24     (1,1,192)             0.0000000      SFTREACH24                              
 ----------------------------------------------------------------------------------------




 SFR-1 PACKAGE - SUMMARY OF FLOWS FOR EACH CONTROL VOLUME   PERIOD      1   STEP        3
 ----------------------------------------------------------------------------------------------------------------------------------------------------------------------
                                                                                                                                                             PERCENT   
   NUMBER      INFLOW      OUTFLOW        GWF        RAINFALL   EVAPORATION     RUNOFF     EXT INFLOW  EXT OUTFLOW    STORAGE      CONSTANT     IN - OUT    DIFFERENCE 
 ----------------------------------------------------------------------------------------------------------------------------------------------------------------------
     1       0.0000      -21.270      -21.930       0.0000       0.0000       0.0000       43.200       0.0000       0.0000       0.0000      -7.10543E-15 -1.64477E-14
     2       21.270       0.0000      -21.270       0.0000       0.0000       0.0000       0.0000       0.0000       0.0000       0.0000       3.55271E-15  1.67026E-14
     3       0.0000       0.0000       0.0000       0.0000       0.0000       0.0000       0.0000       0.0000       0.0000       0.0000       0.0000       0.0000     
     4       0.0000       0.0000       0.0000       0.0000       0.0000       0.0000       0.0000       0.0000       0.0000       0.0000       0.0000       0.0000     
     5       0.0000       0.0000       0.0000       0.0000       0.0000       0.0000       0.0000       0.0000       0.0000       0.0000       0.0000       0.0000     
     6       0.0000       0.0000       0.0000       0.0000       0.0000       0.0000       0.0000       0.0000       0.0000       0.0000       0.0000       0.0000     
     7       0.0000       0.0000       0.0000       0.0000       0.0000       0.0000       0.0000       0.0000       0.0000       0.0000       0.0000       0.0000     
     8       0.0000       0.0000       0.0000       0.0000       0.0000       0.0000       0.0000       0.0000       0.0000       0.0000       0.0000       0.0000     
     9       0.0000       0.0000       0.0000       0.0000       0.0000       0.0000       0.0000       0.0000       0.0000       0.0000       0.0000       0.0000     
     10      0.0000       0.0000       0.0000       0.0000       0.0000       0.0000       0.0000       0.0000       0.0000       0.0000       0.0000       0.0000     
     11      0.0000       0.0000       0.0000       0.0000       0.0000       0.0000       0.0000       0.0000       0.0000       0.0000       0.0000       0.0000     
     12      0.0000       0.0000       0.0000       0.0000       0.0000       0.0000       0.0000       0.0000       0.0000       0.0000       0.0000       0.0000     
     13      0.0000       0.0000       0.0000       0.0000       0.0000       0.0000       0.0000       0.0000       0.0000       0.0000       0.0000       0.0000     
     14      0.0000       0.0000       0.0000       0.0000       0.0000       0.0000       0.0000       0.0000       0.0000       0.0000       0.0000       0.0000     
     15      0.0000       0.0000       0.0000       0.0000       0.0000       0.0000       0.0000       0.0000       0.0000       0.0000       0.0000       0.0000     
     16      0.0000       0.0000       0.0000       0.0000       0.0000       0.0000       0.0000       0.0000       0.0000       0.0000       0.0000       0.0000     
     17      0.0000       0.0000       0.0000       0.0000       0.0000       0.0000       0.0000       0.0000       0.0000       0.0000       0.0000       0.0000     
     18      0.0000       0.0000       0.0000       0.0000       0.0000       0.0000       0.0000       0.0000       0.0000       0.0000       0.0000       0.0000     
     19      0.0000       0.0000       0.0000       0.0000       0.0000       0.0000       0.0000       0.0000       0.0000       0.0000       0.0000       0.0000     
     20      0.0000       0.0000       0.0000       0.0000       0.0000       0.0000       0.0000       0.0000       0.0000       0.0000       0.0000       0.0000     
     21      0.0000       0.0000       0.0000       0.0000       0.0000       0.0000       0.0000       0.0000       0.0000       0.0000       0.0000       0.0000     
     22      0.0000       0.0000       0.0000       0.0000       0.0000       0.0000       0.0000       0.0000       0.0000       0.0000       0.0000       0.0000     
     23      0.0000       0.0000       0.0000       0.0000       0.0000       0.0000       0.0000       0.0000       0.0000       0.0000       0.0000       0.0000     
     24      0.0000       0.0000       0.0000       0.0000       0.0000       0.0000       0.0000       0.0000       0.0000       0.0000       0.0000       0.0000     
 ----------------------------------------------------------------------------------------------------------------------------------------------------------------------




  SFR-1 BUDGET FOR ENTIRE MODEL AT END OF TIME STEP    3, STRESS PERIOD   1
  ------------------------------------------------------------------------------

     CUMULATIVE SFR-1      M       RATES FOR THIS TIME STEP      M/T
     ------------------                 ------------------------

           IN:                                      IN:
           ---                                      ---
                 GWF =           0.0000                   GWF =           0.0000
            RAINFALL =           0.0000              RAINFALL =           0.0000
         EVAPORATION =           0.0000           EVAPORATION =           0.0000
              RUNOFF =           0.0000                RUNOFF =           0.0000
          EXT-INFLOW =        1296.0000            EXT-INFLOW =          43.2000
         EXT-OUTFLOW =           0.0000           EXT-OUTFLOW =           0.0000
             STORAGE =           0.0000               STORAGE =           0.0000
            CONSTANT =           0.0000              CONSTANT =           0.0000

            TOTAL IN =        1296.0000              TOTAL IN =          43.2000

          OUT:                                     OUT:
          ----                                     ----
                 GWF =        1296.0000                   GWF =          43.2000
            RAINFALL =           0.0000              RAINFALL =           0.0000
         EVAPORATION =           0.0000           EVAPORATION =           0.0000
              RUNOFF =           0.0000                RUNOFF =           0.0000
          EXT-INFLOW =           0.0000            EXT-INFLOW =           0.0000
         EXT-OUTFLOW =           0.0000           EXT-OUTFLOW =           0.0000
             STORAGE =       2.7756E-16               STORAGE =           0.0000
            CONSTANT =           0.0000              CONSTANT =           0.0000

           TOTAL OUT =        1296.0000             TOTAL OUT =          43.2000

            IN - OUT =           0.0000              IN - OUT =           0.0000

 PERCENT DISCREPANCY =           0.00     PERCENT DISCREPANCY =           0.00



  MASS BUDGET FOR ENTIRE MODEL AT END OF TIME STEP    3, STRESS PERIOD   1
  ---------------------------------------------------------------------------------------------------

     CUMULATIVE MASS      M       RATES FOR THIS TIME STEP      M/T          PACKAGE NAME    
     ------------------                 ------------------------                     ----------------

           IN:                                      IN:
           ---                                      ---
     STORAGE-AQUEOUS =           0.0000       STORAGE-AQUEOUS =           0.0000     MST             
               RCH-1 =           0.0000                 RCH-1 =           0.0000     SSM             
               CHD-1 =           0.0000                 CHD-1 =           0.0000     SSM             
     FLOW-CORRECTION =       2.9826E-08       FLOW-CORRECTION =       1.0003E-09                     
                 SFT =        1296.0000                   SFT =          43.2000     SFR-1           

            TOTAL IN =        1296.0000              TOTAL IN =          43.2000

          OUT:                                     OUT:
          ----                                     ----
     STORAGE-AQUEOUS =        1296.0000       STORAGE-AQUEOUS =          43.2000     MST             
               RCH-1 =           0.0000                 RCH-1 =           0.0000     SSM             
               CHD-1 =      1.2610E-111                 CHD-1 =      1.2450E-112     SSM             
     FLOW-CORRECTION =       5.7269E-07       FLOW-CORRECTION =       3.1588E-08                     
                 SFT =           0.0000                   SFT =           0.0000     SFR-1           

           TOTAL OUT =        1296.0000             TOTAL OUT =          43.2000

            IN - OUT =       7.6268E-07              IN - OUT =       2.8999E-08

 PERCENT DISCREPANCY =           0.00     PERCENT DISCREPANCY =           0.00




         TIME SUMMARY AT END OF TIME STEP    3 IN STRESS PERIOD    1
                    SECONDS     MINUTES      HOURS       DAYS        YEARS
                    -----------------------------------------------------------
   TIME STEP LENGTH 8.64000E+05  14400.      240.00      10.000     2.73785E-02
 STRESS PERIOD TIME 2.59200E+06  43200.      720.00      30.000     8.21355E-02
         TOTAL TIME 2.59200E+06  43200.      720.00      30.000     8.21355E-02


end timestep


start timestep kper="1" kstp="4" mode="normal"


 FMI SETTING BUDGET TERMS FOR KSTP 4 AND KPER 1 TO BUDGET FILE TERMS FROM KSTP 1 AND KPER 1

 FMI SETTING HEAD FOR KSTP 4 AND KPER 1 TO BINARY FILE HEADS FROM KSTP 1 AND KPER 1

 SFR-1 SETTING BUDGET TERMS FOR KSTP 4 AND KPER 1 TO BUDGET FILE TERMS FROM KSTP 1 AND KPER 1

 SFT PACKAGE (SFR-1) FLOW RATES   PERIOD      1   STEP        4
 ----------------------------------------------------------------------------------------
   NUMBER   CELLID                    RATE       NAME                                    
 ----------------------------------------------------------------------------------------
     1      (1,1,169)             21.929568      SFTREACH1                               
     2      (1,1,170)             21.270432      SFTREACH2                               
     3      (1,1,171)             0.0000000      SFTREACH3                               
     4      (1,1,172)             0.0000000      SFTREACH4                               
     5      (1,1,173)             0.0000000      SFTREACH5                               
     6      (1,1,174)             0.0000000      SFTREACH6                               
     7      (1,1,175)             0.0000000      SFTREACH7                               
     8      (1,1,176)             0.0000000      SFTREACH8                               
     9      (1,1,177)             0.0000000      SFTREACH9                               
     10     (1,1,178)             0.0000000      SFTREACH10                              
     11     (1,1,179)             0.0000000      SFTREACH11                              
     12     (1,1,180)             0.0000000      SFTREACH12                              
     13     (1,1,181)             0.0000000      SFTREACH13                              
     14     (1,1,182)             0.0000000      SFTREACH14                              
     15     (1,1,183)             0.0000000      SFTREACH15                              
     16     (1,1,184)             0.0000000      SFTREACH16                              
     17     (1,1,185)             0.0000000      SFTREACH17                              
     18     (1,1,186)             0.0000000      SFTREACH18                              
     19     (1,1,187)             0.0000000      SFTREACH19                              
     20     (1,1,188)             0.0000000      SFTREACH20                              
     21     (1,1,189)             0.0000000      SFTREACH21                              
     22     (1,1,190)             0.0000000      SFTREACH22                              
     23     (1,1,191)             0.0000000      SFTREACH23                              
     24     (1,1,192)             0.0000000      SFTREACH24                              
 ----------------------------------------------------------------------------------------




 SFR-1 PACKAGE - SUMMARY OF FLOWS FOR EACH CONTROL VOLUME   PERIOD      1   STEP        4
 ----------------------------------------------------------------------------------------------------------------------------------------------------------------------
                                                                                                                                                             PERCENT   
   NUMBER      INFLOW      OUTFLOW        GWF        RAINFALL   EVAPORATION     RUNOFF     EXT INFLOW  EXT OUTFLOW    STORAGE      CONSTANT     IN - OUT    DIFFERENCE 
 ----------------------------------------------------------------------------------------------------------------------------------------------------------------------
     1       0.0000      -21.270      -21.930       0.0000       0.0000       0.0000       43.200       0.0000       0.0000       0.0000      -7.10543E-15 -1.64477E-14
     2       21.270       0.0000      -21.270       0.0000       0.0000       0.0000       0.0000       0.0000       0.0000       0.0000       3.55271E-15  1.67026E-14
     3       0.0000       0.0000       0.0000       0.0000       0.0000       0.0000       0.0000       0.0000       0.0000       0.0000       0.0000       0.0000     
     4       0.0000       0.0000       0.0000       0.0000       0.0000       0.0000       0.0000       0.0000       0.0000       0.0000       0.0000       0.0000     
     5       0.0000       0.0000       0.0000       0.0000       0.0000       0.0000       0.0000       0.0000       0.0000       0.0000       0.0000       0.0000     
     6       0.0000       0.0000       0.0000       0.0000       0.0000       0.0000       0.0000       0.0000       0.0000       0.0000       0.0000       0.0000     
     7       0.0000       0.0000       0.0000       0.0000       0.0000       0.0000       0.0000       0.0000       0.0000       0.0000       0.0000       0.0000     
     8       0.0000       0.0000       0.0000       0.0000       0.0000       0.0000       0.0000       0.0000       0.0000       0.0000       0.0000       0.0000     
     9       0.0000       0.0000       0.0000       0.0000       0.0000       0.0000       0.0000       0.0000       0.0000       0.0000       0.0000       0.0000     
     10      0.0000       0.0000       0.0000       0.0000       0.0000       0.0000       0.0000       0.0000       0.0000       0.0000       0.0000       0.0000     
     11      0.0000       0.0000       0.0000       0.0000       0.0000       0.0000       0.0000       0.0000       0.0000       0.0000       0.0000       0.0000     
     12      0.0000       0.0000       0.0000       0.0000       0.0000       0.0000       0.0000       0.0000       0.0000       0.0000       0.0000       0.0000     
     13      0.0000       0.0000       0.0000       0.0000       0.0000       0.0000       0.0000       0.0000       0.0000       0.0000       0.0000       0.0000     
     14      0.0000       0.0000       0.0000       0.0000       0.0000       0.0000       0.0000       0.0000       0.0000       0.0000       0.0000       0.0000     
     15      0.0000       0.0000       0.0000       0.0000       0.0000       0.0000       0.0000       0.0000       0.0000       0.0000       0.0000       0.0000     
     16      0.0000       0.0000       0.0000       0.0000       0.0000       0.0000       0.0000       0.0000       0.0000       0.0000       0.0000       0.0000     
     17      0.0000       0.0000       0.0000       0.0000       0.0000       0.0000       0.0000       0.0000       0.0000       0.0000       0.0000       0.0000     
     18      0.0000       0.0000       0.0000       0.0000       0.0000       0.0000       0.0000       0.0000       0.0000       0.0000       0.0000       0.0000     
     19      0.0000       0.0000       0.0000       0.0000       0.0000       0.0000       0.0000       0.0000       0.0000       0.0000       0.0000       0.0000     
     20      0.0000       0.0000       0.0000       0.0000       0.0000       0.0000       0.0000       0.0000       0.0000       0.0000       0.0000       0.0000     
     21      0.0000       0.0000       0.0000       0.0000       0.0000       0.0000       0.0000       0.0000       0.0000       0.0000       0.0000       0.0000     
     22      0.0000       0.0000       0.0000       0.0000       0.0000       0.0000       0.0000       0.0000       0.0000       0.0000       0.0000       0.0000     
     23      0.0000       0.0000       0.0000       0.0000       0.0000       0.0000       0.0000       0.0000       0.0000       0.0000       0.0000       0.0000     
     24      0.0000       0.0000       0.0000       0.0000       0.0000       0.0000       0.0000       0.0000       0.0000       0.0000       0.0000       0.0000     
 ----------------------------------------------------------------------------------------------------------------------------------------------------------------------




  SFR-1 BUDGET FOR ENTIRE MODEL AT END OF TIME STEP    4, STRESS PERIOD   1
  ------------------------------------------------------------------------------

     CUMULATIVE SFR-1      M       RATES FOR THIS TIME STEP      M/T
     ------------------                 ------------------------

           IN:                                      IN:
           ---                                      ---
                 GWF =           0.0000                   GWF =           0.0000
            RAINFALL =           0.0000              RAINFALL =           0.0000
         EVAPORATION =           0.0000           EVAPORATION =           0.0000
              RUNOFF =           0.0000                RUNOFF =           0.0000
          EXT-INFLOW =        1728.0000            EXT-INFLOW =          43.2000
         EXT-OUTFLOW =           0.0000           EXT-OUTFLOW =           0.0000
             STORAGE =           0.0000               STORAGE =           0.0000
            CONSTANT =           0.0000              CONSTANT =           0.0000

            TOTAL IN =        1728.0000              TOTAL IN =          43.2000

          OUT:                                     OUT:
          ----                                     ----
                 GWF =        1728.0000                   GWF =          43.2000
            RAINFALL =           0.0000              RAINFALL =           0.0000
         EVAPORATION =           0.0000           EVAPORATION =           0.0000
              RUNOFF =           0.0000                RUNOFF =           0.0000
          EXT-INFLOW =           0.0000            EXT-INFLOW =           0.0000
         EXT-OUTFLOW =           0.0000           EXT-OUTFLOW =           0.0000
             STORAGE =       2.7756E-16               STORAGE =           0.0000
            CONSTANT =           0.0000              CONSTANT =           0.0000

           TOTAL OUT =        1728.0000             TOTAL OUT =          43.2000

            IN - OUT =           0.0000              IN - OUT =           0.0000

 PERCENT DISCREPANCY =           0.00     PERCENT DISCREPANCY =           0.00



  MASS BUDGET FOR ENTIRE MODEL AT END OF TIME STEP    4, STRESS PERIOD   1
  ---------------------------------------------------------------------------------------------------

     CUMULATIVE MASS      M       RATES FOR THIS TIME STEP      M/T          PACKAGE NAME    
     ------------------                 ------------------------                     ----------------

           IN:                                      IN:
           ---                                      ---
     STORAGE-AQUEOUS =           0.0000       STORAGE-AQUEOUS =           0.0000     MST             
               RCH-1 =           0.0000                 RCH-1 =           0.0000     SSM             
               CHD-1 =           0.0000                 CHD-1 =           0.0000     SSM             
     FLOW-CORRECTION =       3.9847E-08       FLOW-CORRECTION =       1.0021E-09                     
                 SFT =        1728.0000                   SFT =          43.2000     SFR-1           

            TOTAL IN =        1728.0000              TOTAL IN =          43.2000

          OUT:                                     OUT:
          ----                                     ----
     STORAGE-AQUEOUS =        1728.0000       STORAGE-AQUEOUS =          43.2000     MST             
               RCH-1 =           0.0000                 RCH-1 =           0.0000     SSM             
               CHD-1 =      6.6466E-110                 CHD-1 =      6.5205E-111     SSM             
     FLOW-CORRECTION =       1.0330E-06       FLOW-CORRECTION =       4.6028E-08                     
                 SFT =           0.0000                   SFT =           0.0000     SFR-1           

           TOTAL OUT =        1728.0000             TOTAL OUT =          43.2000

            IN - OUT =       9.8419E-07              IN - OUT =       2.2151E-08

 PERCENT DISCREPANCY =           0.00     PERCENT DISCREPANCY =           0.00




         TIME SUMMARY AT END OF TIME STEP    4 IN STRESS PERIOD    1
                    SECONDS     MINUTES      HOURS       DAYS        YEARS
                    -----------------------------------------------------------
   TIME STEP LENGTH 8.64000E+05  14400.      240.00      10.000     2.73785E-02
 STRESS PERIOD TIME 3.45600E+06  57600.      960.00      40.000     0.10951    
         TOTAL TIME 3.45600E+06  57600.      960.00      40.000     0.10951    


end timestep


start timestep kper="1" kstp="5" mode="normal"


 FMI SETTING BUDGET TERMS FOR KSTP 5 AND KPER 1 TO BUDGET FILE TERMS FROM KSTP 1 AND KPER 1

 FMI SETTING HEAD FOR KSTP 5 AND KPER 1 TO BINARY FILE HEADS FROM KSTP 1 AND KPER 1

 SFR-1 SETTING BUDGET TERMS FOR KSTP 5 AND KPER 1 TO BUDGET FILE TERMS FROM KSTP 1 AND KPER 1

 SFT PACKAGE (SFR-1) FLOW RATES   PERIOD      1   STEP        5
 ----------------------------------------------------------------------------------------
   NUMBER   CELLID                    RATE       NAME                                    
 ----------------------------------------------------------------------------------------
     1      (1,1,169)             21.929568      SFTREACH1                               
     2      (1,1,170)             21.270432      SFTREACH2                               
     3      (1,1,171)             0.0000000      SFTREACH3                               
     4      (1,1,172)             0.0000000      SFTREACH4                               
     5      (1,1,173)             0.0000000      SFTREACH5                               
     6      (1,1,174)             0.0000000      SFTREACH6                               
     7      (1,1,175)             0.0000000      SFTREACH7                               
     8      (1,1,176)             0.0000000      SFTREACH8                               
     9      (1,1,177)             0.0000000      SFTREACH9                               
     10     (1,1,178)             0.0000000      SFTREACH10                              
     11     (1,1,179)             0.0000000      SFTREACH11                              
     12     (1,1,180)             0.0000000      SFTREACH12                              
     13     (1,1,181)             0.0000000      SFTREACH13                              
     14     (1,1,182)             0.0000000      SFTREACH14                              
     15     (1,1,183)             0.0000000      SFTREACH15                              
     16     (1,1,184)             0.0000000      SFTREACH16                              
     17     (1,1,185)             0.0000000      SFTREACH17                              
     18     (1,1,186)             0.0000000      SFTREACH18                              
     19     (1,1,187)             0.0000000      SFTREACH19                              
     20     (1,1,188)             0.0000000      SFTREACH20                              
     21     (1,1,189)             0.0000000      SFTREACH21                              
     22     (1,1,190)             0.0000000      SFTREACH22                              
     23     (1,1,191)             0.0000000      SFTREACH23                              
     24     (1,1,192)             0.0000000      SFTREACH24                              
 ----------------------------------------------------------------------------------------




 SFR-1 PACKAGE - SUMMARY OF FLOWS FOR EACH CONTROL VOLUME   PERIOD      1   STEP        5
 ----------------------------------------------------------------------------------------------------------------------------------------------------------------------
                                                                                                                                                             PERCENT   
   NUMBER      INFLOW      OUTFLOW        GWF        RAINFALL   EVAPORATION     RUNOFF     EXT INFLOW  EXT OUTFLOW    STORAGE      CONSTANT     IN - OUT    DIFFERENCE 
 ----------------------------------------------------------------------------------------------------------------------------------------------------------------------
     1       0.0000      -21.270      -21.930       0.0000       0.0000       0.0000       43.200       0.0000       0.0000       0.0000      -7.10543E-15 -1.64477E-14
     2       21.270       0.0000      -21.270       0.0000       0.0000       0.0000       0.0000       0.0000       0.0000       0.0000       3.55271E-15  1.67026E-14
     3       0.0000       0.0000       0.0000       0.0000       0.0000       0.0000       0.0000       0.0000       0.0000       0.0000       0.0000       0.0000     
     4       0.0000       0.0000       0.0000       0.0000       0.0000       0.0000       0.0000       0.0000       0.0000       0.0000       0.0000       0.0000     
     5       0.0000       0.0000       0.0000       0.0000       0.0000       0.0000       0.0000       0.0000       0.0000       0.0000       0.0000       0.0000     
     6       0.0000       0.0000       0.0000       0.0000       0.0000       0.0000       0.0000       0.0000       0.0000       0.0000       0.0000       0.0000     
     7       0.0000       0.0000       0.0000       0.0000       0.0000       0.0000       0.0000       0.0000       0.0000       0.0000       0.0000       0.0000     
     8       0.0000       0.0000       0.0000       0.0000       0.0000       0.0000       0.0000       0.0000       0.0000       0.0000       0.0000       0.0000     
     9       0.0000       0.0000       0.0000       0.0000       0.0000       0.0000       0.0000       0.0000       0.0000       0.0000       0.0000       0.0000     
     10      0.0000       0.0000       0.0000       0.0000       0.0000       0.0000       0.0000       0.0000       0.0000       0.0000       0.0000       0.0000     
     11      0.0000       0.0000       0.0000       0.0000       0.0000       0.0000       0.0000       0.0000       0.0000       0.0000       0.0000       0.0000     
     12      0.0000       0.0000       0.0000       0.0000       0.0000       0.0000       0.0000       0.0000       0.0000       0.0000       0.0000       0.0000     
     13      0.0000       0.0000       0.0000       0.0000       0.0000       0.0000       0.0000       0.0000       0.0000       0.0000       0.0000       0.0000     
     14      0.0000       0.0000       0.0000       0.0000       0.0000       0.0000       0.0000       0.0000       0.0000       0.0000       0.0000       0.0000     
     15      0.0000       0.0000       0.0000       0.0000       0.0000       0.0000       0.0000       0.0000       0.0000       0.0000       0.0000       0.0000     
     16      0.0000       0.0000       0.0000       0.0000       0.0000       0.0000       0.0000       0.0000       0.0000       0.0000       0.0000       0.0000     
     17      0.0000       0.0000       0.0000       0.0000       0.0000       0.0000       0.0000       0.0000       0.0000       0.0000       0.0000       0.0000     
     18      0.0000       0.0000       0.0000       0.0000       0.0000       0.0000       0.0000       0.0000       0.0000       0.0000       0.0000       0.0000     
     19      0.0000       0.0000       0.0000       0.0000       0.0000       0.0000       0.0000       0.0000       0.0000       0.0000       0.0000       0.0000     
     20      0.0000       0.0000       0.0000       0.0000       0.0000       0.0000       0.0000       0.0000       0.0000       0.0000       0.0000       0.0000     
     21      0.0000       0.0000       0.0000       0.0000       0.0000       0.0000       0.0000       0.0000       0.0000       0.0000       0.0000       0.0000     
     22      0.0000       0.0000       0.0000       0.0000       0.0000       0.0000       0.0000       0.0000       0.0000       0.0000       0.0000       0.0000     
     23      0.0000       0.0000       0.0000       0.0000       0.0000       0.0000       0.0000       0.0000       0.0000       0.0000       0.0000       0.0000     
     24      0.0000       0.0000       0.0000       0.0000       0.0000       0.0000       0.0000       0.0000       0.0000       0.0000       0.0000       0.0000     
 ----------------------------------------------------------------------------------------------------------------------------------------------------------------------




  SFR-1 BUDGET FOR ENTIRE MODEL AT END OF TIME STEP    5, STRESS PERIOD   1
  ------------------------------------------------------------------------------

     CUMULATIVE SFR-1      M       RATES FOR THIS TIME STEP      M/T
     ------------------                 ------------------------

           IN:                                      IN:
           ---                                      ---
                 GWF =           0.0000                   GWF =           0.0000
            RAINFALL =           0.0000              RAINFALL =           0.0000
         EVAPORATION =           0.0000           EVAPORATION =           0.0000
              RUNOFF =           0.0000                RUNOFF =           0.0000
          EXT-INFLOW =        2160.0000            EXT-INFLOW =          43.2000
         EXT-OUTFLOW =           0.0000           EXT-OUTFLOW =           0.0000
             STORAGE =           0.0000               STORAGE =           0.0000
            CONSTANT =           0.0000              CONSTANT =           0.0000

            TOTAL IN =        2160.0000              TOTAL IN =          43.2000

          OUT:                                     OUT:
          ----                                     ----
                 GWF =        2160.0000                   GWF =          43.2000
            RAINFALL =           0.0000              RAINFALL =           0.0000
         EVAPORATION =           0.0000           EVAPORATION =           0.0000
              RUNOFF =           0.0000                RUNOFF =           0.0000
          EXT-INFLOW =           0.0000            EXT-INFLOW =           0.0000
         EXT-OUTFLOW =           0.0000           EXT-OUTFLOW =           0.0000
             STORAGE =       2.7756E-16               STORAGE =           0.0000
            CONSTANT =           0.0000              CONSTANT =           0.0000

           TOTAL OUT =        2160.0000             TOTAL OUT =          43.2000

            IN - OUT =           0.0000              IN - OUT =           0.0000

 PERCENT DISCREPANCY =           0.00     PERCENT DISCREPANCY =           0.00



  MASS BUDGET FOR ENTIRE MODEL AT END OF TIME STEP    5, STRESS PERIOD   1
  ---------------------------------------------------------------------------------------------------

     CUMULATIVE MASS      M       RATES FOR THIS TIME STEP      M/T          PACKAGE NAME    
     ------------------                 ------------------------                     ----------------

           IN:                                      IN:
           ---                                      ---
     STORAGE-AQUEOUS =       2.1692E-18       STORAGE-AQUEOUS =       2.1692E-19     MST             
               RCH-1 =           0.0000                 RCH-1 =           0.0000     SSM             
               CHD-1 =           0.0000                 CHD-1 =           0.0000     SSM             
     FLOW-CORRECTION =       4.9877E-08       FLOW-CORRECTION =       1.0030E-09                     
                 SFT =        2160.0000                   SFT =          43.2000     SFR-1           

            TOTAL IN =        2160.0000              TOTAL IN =          43.2000

          OUT:                                     OUT:
          ----                                     ----
     STORAGE-AQUEOUS =        2160.0000       STORAGE-AQUEOUS =          43.2000     MST             
               RCH-1 =           0.0000                 RCH-1 =           0.0000     SSM             
               CHD-1 =      2.6386E-108                 CHD-1 =      2.5721E-109     SSM             
     FLOW-CORRECTION =       1.6419E-06       FLOW-CORRECTION =       6.0894E-08                     
                 SFT =           0.0000                   SFT =           0.0000     SFR-1           

           TOTAL OUT =        2160.0000             TOTAL OUT =          43.2000

            IN - OUT =       1.1322E-06              IN - OUT =       1.4800E-08

 PERCENT DISCREPANCY =           0.00     PERCENT DISCREPANCY =           0.00




         TIME SUMMARY AT END OF TIME STEP    5 IN STRESS PERIOD    1
                    SECONDS     MINUTES      HOURS       DAYS        YEARS
                    -----------------------------------------------------------
   TIME STEP LENGTH 8.64000E+05  14400.      240.00      10.000     2.73785E-02
 STRESS PERIOD TIME 4.32000E+06  72000.      1200.0      50.000     0.13689    
         TOTAL TIME 4.32000E+06  72000.      1200.0      50.000     0.13689    


end timestep


start timestep kper="1" kstp="6" mode="normal"


 FMI SETTING BUDGET TERMS FOR KSTP 6 AND KPER 1 TO BUDGET FILE TERMS FROM KSTP 1 AND KPER 1

 FMI SETTING HEAD FOR KSTP 6 AND KPER 1 TO BINARY FILE HEADS FROM KSTP 1 AND KPER 1

 SFR-1 SETTING BUDGET TERMS FOR KSTP 6 AND KPER 1 TO BUDGET FILE TERMS FROM KSTP 1 AND KPER 1

 SFT PACKAGE (SFR-1) FLOW RATES   PERIOD      1   STEP        6
 ----------------------------------------------------------------------------------------
   NUMBER   CELLID                    RATE       NAME                                    
 ----------------------------------------------------------------------------------------
     1      (1,1,169)             21.929568      SFTREACH1                               
     2      (1,1,170)             21.270432      SFTREACH2                               
     3      (1,1,171)             0.0000000      SFTREACH3                               
     4      (1,1,172)             0.0000000      SFTREACH4                               
     5      (1,1,173)             0.0000000      SFTREACH5                               
     6      (1,1,174)             0.0000000      SFTREACH6                               
     7      (1,1,175)             0.0000000      SFTREACH7                               
     8      (1,1,176)             0.0000000      SFTREACH8                               
     9      (1,1,177)             0.0000000      SFTREACH9                               
     10     (1,1,178)             0.0000000      SFTREACH10                              
     11     (1,1,179)             0.0000000      SFTREACH11                              
     12     (1,1,180)             0.0000000      SFTREACH12                              
     13     (1,1,181)             0.0000000      SFTREACH13                              
     14     (1,1,182)             0.0000000      SFTREACH14                              
     15     (1,1,183)             0.0000000      SFTREACH15                              
     16     (1,1,184)             0.0000000      SFTREACH16                              
     17     (1,1,185)             0.0000000      SFTREACH17                              
     18     (1,1,186)             0.0000000      SFTREACH18                              
     19     (1,1,187)             0.0000000      SFTREACH19                              
     20     (1,1,188)             0.0000000      SFTREACH20                              
     21     (1,1,189)             0.0000000      SFTREACH21                              
     22     (1,1,190)             0.0000000      SFTREACH22                              
     23     (1,1,191)             0.0000000      SFTREACH23                              
     24     (1,1,192)             0.0000000      SFTREACH24                              
 ----------------------------------------------------------------------------------------




 SFR-1 PACKAGE - SUMMARY OF FLOWS FOR EACH CONTROL VOLUME   PERIOD      1   STEP        6
 ----------------------------------------------------------------------------------------------------------------------------------------------------------------------
                                                                                                                                                             PERCENT   
   NUMBER      INFLOW      OUTFLOW        GWF        RAINFALL   EVAPORATION     RUNOFF     EXT INFLOW  EXT OUTFLOW    STORAGE      CONSTANT     IN - OUT    DIFFERENCE 
 ----------------------------------------------------------------------------------------------------------------------------------------------------------------------
     1       0.0000      -21.270      -21.930       0.0000       0.0000       0.0000       43.200       0.0000       0.0000       0.0000      -7.10543E-15 -1.64477E-14
     2       21.270       0.0000      -21.270       0.0000       0.0000       0.0000       0.0000       0.0000       0.0000       0.0000       3.55271E-15  1.67026E-14
     3       0.0000       0.0000       0.0000       0.0000       0.0000       0.0000       0.0000       0.0000       0.0000       0.0000       0.0000       0.0000     
     4       0.0000       0.0000       0.0000       0.0000       0.0000       0.0000       0.0000       0.0000       0.0000       0.0000       0.0000       0.0000     
     5       0.0000       0.0000       0.0000       0.0000       0.0000       0.0000       0.0000       0.0000       0.0000       0.0000       0.0000       0.0000     
     6       0.0000       0.0000       0.0000       0.0000       0.0000       0.0000       0.0000       0.0000       0.0000       0.0000       0.0000       0.0000     
     7       0.0000       0.0000       0.0000       0.0000       0.0000       0.0000       0.0000       0.0000       0.0000       0.0000       0.0000       0.0000     
     8       0.0000       0.0000       0.0000       0.0000       0.0000       0.0000       0.0000       0.0000       0.0000       0.0000       0.0000       0.0000     
     9       0.0000       0.0000       0.0000       0.0000       0.0000       0.0000       0.0000       0.0000       0.0000       0.0000       0.0000       0.0000     
     10      0.0000       0.0000       0.0000       0.0000       0.0000       0.0000       0.0000       0.0000       0.0000       0.0000       0.0000       0.0000     
     11      0.0000       0.0000       0.0000       0.0000       0.0000       0.0000       0.0000       0.0000       0.0000       0.0000       0.0000       0.0000     
     12      0.0000       0.0000       0.0000       0.0000       0.0000       0.0000       0.0000       0.0000       0.0000       0.0000       0.0000       0.0000     
     13      0.0000       0.0000       0.0000       0.0000       0.0000       0.0000       0.0000       0.0000       0.0000       0.0000       0.0000       0.0000     
     14      0.0000       0.0000       0.0000       0.0000       0.0000       0.0000       0.0000       0.0000       0.0000       0.0000       0.0000       0.0000     
     15      0.0000       0.0000       0.0000       0.0000       0.0000       0.0000       0.0000       0.0000       0.0000       0.0000       0.0000       0.0000     
     16      0.0000       0.0000       0.0000       0.0000       0.0000       0.0000       0.0000       0.0000       0.0000       0.0000       0.0000       0.0000     
     17      0.0000       0.0000       0.0000       0.0000       0.0000       0.0000       0.0000       0.0000       0.0000       0.0000       0.0000       0.0000     
     18      0.0000       0.0000       0.0000       0.0000       0.0000       0.0000       0.0000       0.0000       0.0000       0.0000       0.0000       0.0000     
     19      0.0000       0.0000       0.0000       0.0000       0.0000       0.0000       0.0000       0.0000       0.0000       0.0000       0.0000       0.0000     
     20      0.0000       0.0000       0.0000       0.0000       0.0000       0.0000       0.0000       0.0000       0.0000       0.0000       0.0000       0.0000     
     21      0.0000       0.0000       0.0000       0.0000       0.0000       0.0000       0.0000       0.0000       0.0000       0.0000       0.0000       0.0000     
     22      0.0000       0.0000       0.0000       0.0000       0.0000       0.0000       0.0000       0.0000       0.0000       0.0000       0.0000       0.0000     
     23      0.0000       0.0000       0.0000       0.0000       0.0000       0.0000       0.0000       0.0000       0.0000       0.0000       0.0000       0.0000     
     24      0.0000       0.0000       0.0000       0.0000       0.0000       0.0000       0.0000       0.0000       0.0000       0.0000       0.0000       0.0000     
 ----------------------------------------------------------------------------------------------------------------------------------------------------------------------




  SFR-1 BUDGET FOR ENTIRE MODEL AT END OF TIME STEP    6, STRESS PERIOD   1
  ------------------------------------------------------------------------------

     CUMULATIVE SFR-1      M       RATES FOR THIS TIME STEP      M/T
     ------------------                 ------------------------

           IN:                                      IN:
           ---                                      ---
                 GWF =           0.0000                   GWF =           0.0000
            RAINFALL =           0.0000              RAINFALL =           0.0000
         EVAPORATION =           0.0000           EVAPORATION =           0.0000
              RUNOFF =           0.0000                RUNOFF =           0.0000
          EXT-INFLOW =        2592.0000            EXT-INFLOW =          43.2000
         EXT-OUTFLOW =           0.0000           EXT-OUTFLOW =           0.0000
             STORAGE =           0.0000               STORAGE =           0.0000
            CONSTANT =           0.0000              CONSTANT =           0.0000

            TOTAL IN =        2592.0000              TOTAL IN =          43.2000

          OUT:                                     OUT:
          ----                                     ----
                 GWF =        2592.0000                   GWF =          43.2000
            RAINFALL =           0.0000              RAINFALL =           0.0000
         EVAPORATION =           0.0000           EVAPORATION =           0.0000
              RUNOFF =           0.0000                RUNOFF =           0.0000
          EXT-INFLOW =           0.0000            EXT-INFLOW =           0.0000
         EXT-OUTFLOW =           0.0000           EXT-OUTFLOW =           0.0000
             STORAGE =       2.7756E-16               STORAGE =           0.0000
            CONSTANT =           0.0000              CONSTANT =           0.0000

           TOTAL OUT =        2592.0000             TOTAL OUT =          43.2000

            IN - OUT =           0.0000              IN - OUT =           0.0000

 PERCENT DISCREPANCY =           0.00     PERCENT DISCREPANCY =           0.00



  MASS BUDGET FOR ENTIRE MODEL AT END OF TIME STEP    6, STRESS PERIOD   1
  ---------------------------------------------------------------------------------------------------

     CUMULATIVE MASS      M       RATES FOR THIS TIME STEP      M/T          PACKAGE NAME    
     ------------------                 ------------------------                     ----------------

           IN:                                      IN:
           ---                                      ---
     STORAGE-AQUEOUS =       9.2852E-18       STORAGE-AQUEOUS =       7.1160E-19     MST             
               RCH-1 =           0.0000                 RCH-1 =           0.0000     SSM             
               CHD-1 =           0.0000                 CHD-1 =           0.0000     SSM             
     FLOW-CORRECTION =       5.9914E-08       FLOW-CORRECTION =       1.0037E-09                     
                 SFT =        2592.0000                   SFT =          43.2000     SFR-1           

            TOTAL IN =        2592.0000              TOTAL IN =          43.2000

          OUT:                                     OUT:
          ----                                     ----
     STORAGE-AQUEOUS =        2592.0000       STORAGE-AQUEOUS =          43.2000     MST             
               RCH-1 =           0.0000                 RCH-1 =           0.0000     SSM             
               CHD-1 =      8.4163E-107                 CHD-1 =      8.1524E-108     SSM             
     FLOW-CORRECTION =       2.4001E-06       FLOW-CORRECTION =       7.5821E-08                     
                 SFT =           0.0000                   SFT =           0.0000     SFR-1           

           TOTAL OUT =        2592.0000             TOTAL OUT =          43.2000

            IN - OUT =       1.4421E-06              IN - OUT =       3.0986E-08

 PERCENT DISCREPANCY =           0.00     PERCENT DISCREPANCY =           0.00




         TIME SUMMARY AT END OF TIME STEP    6 IN STRESS PERIOD    1
                    SECONDS     MINUTES      HOURS       DAYS        YEARS
                    -----------------------------------------------------------
   TIME STEP LENGTH 8.64000E+05  14400.      240.00      10.000     2.73785E-02
 STRESS PERIOD TIME 5.18400E+06  86400.      1440.0      60.000     0.16427    
         TOTAL TIME 5.18400E+06  86400.      1440.0      60.000     0.16427    


end timestep


start timestep kper="1" kstp="7" mode="normal"


 FMI SETTING BUDGET TERMS FOR KSTP 7 AND KPER 1 TO BUDGET FILE TERMS FROM KSTP 1 AND KPER 1

 FMI SETTING HEAD FOR KSTP 7 AND KPER 1 TO BINARY FILE HEADS FROM KSTP 1 AND KPER 1

 SFR-1 SETTING BUDGET TERMS FOR KSTP 7 AND KPER 1 TO BUDGET FILE TERMS FROM KSTP 1 AND KPER 1

 SFT PACKAGE (SFR-1) FLOW RATES   PERIOD      1   STEP        7
 ----------------------------------------------------------------------------------------
   NUMBER   CELLID                    RATE       NAME                                    
 ----------------------------------------------------------------------------------------
     1      (1,1,169)             21.929568      SFTREACH1                               
     2      (1,1,170)             21.270432      SFTREACH2                               
     3      (1,1,171)             0.0000000      SFTREACH3                               
     4      (1,1,172)             0.0000000      SFTREACH4                               
     5      (1,1,173)             0.0000000      SFTREACH5                               
     6      (1,1,174)             0.0000000      SFTREACH6                               
     7      (1,1,175)             0.0000000      SFTREACH7                               
     8      (1,1,176)             0.0000000      SFTREACH8                               
     9      (1,1,177)             0.0000000      SFTREACH9                               
     10     (1,1,178)             0.0000000      SFTREACH10                              
     11     (1,1,179)             0.0000000      SFTREACH11                              
     12     (1,1,180)             0.0000000      SFTREACH12                              
     13     (1,1,181)             0.0000000      SFTREACH13                              
     14     (1,1,182)             0.0000000      SFTREACH14                              
     15     (1,1,183)             0.0000000      SFTREACH15                              
     16     (1,1,184)             0.0000000      SFTREACH16                              
     17     (1,1,185)             0.0000000      SFTREACH17                              
     18     (1,1,186)             0.0000000      SFTREACH18                              
     19     (1,1,187)             0.0000000      SFTREACH19                              
     20     (1,1,188)             0.0000000      SFTREACH20                              
     21     (1,1,189)             0.0000000      SFTREACH21                              
     22     (1,1,190)             0.0000000      SFTREACH22                              
     23     (1,1,191)             0.0000000      SFTREACH23                              
     24     (1,1,192)             0.0000000      SFTREACH24                              
 ----------------------------------------------------------------------------------------




 SFR-1 PACKAGE - SUMMARY OF FLOWS FOR EACH CONTROL VOLUME   PERIOD      1   STEP        7
 ----------------------------------------------------------------------------------------------------------------------------------------------------------------------
                                                                                                                                                             PERCENT   
   NUMBER      INFLOW      OUTFLOW        GWF        RAINFALL   EVAPORATION     RUNOFF     EXT INFLOW  EXT OUTFLOW    STORAGE      CONSTANT     IN - OUT    DIFFERENCE 
 ----------------------------------------------------------------------------------------------------------------------------------------------------------------------
     1       0.0000      -21.270      -21.930       0.0000       0.0000       0.0000       43.200       0.0000       0.0000       0.0000      -7.10543E-15 -1.64477E-14
     2       21.270       0.0000      -21.270       0.0000       0.0000       0.0000       0.0000       0.0000       0.0000       0.0000       3.55271E-15  1.67026E-14
     3       0.0000       0.0000       0.0000       0.0000       0.0000       0.0000       0.0000       0.0000       0.0000       0.0000       0.0000       0.0000     
     4       0.0000       0.0000       0.0000       0.0000       0.0000       0.0000       0.0000       0.0000       0.0000       0.0000       0.0000       0.0000     
     5       0.0000       0.0000       0.0000       0.0000       0.0000       0.0000       0.0000       0.0000       0.0000       0.0000       0.0000       0.0000     
     6       0.0000       0.0000       0.0000       0.0000       0.0000       0.0000       0.0000       0.0000       0.0000       0.0000       0.0000       0.0000     
     7       0.0000       0.0000       0.0000       0.0000       0.0000       0.0000       0.0000       0.0000       0.0000       0.0000       0.0000       0.0000     
     8       0.0000       0.0000       0.0000       0.0000       0.0000       0.0000       0.0000       0.0000       0.0000       0.0000       0.0000       0.0000     
     9       0.0000       0.0000       0.0000       0.0000       0.0000       0.0000       0.0000       0.0000       0.0000       0.0000       0.0000       0.0000     
     10      0.0000       0.0000       0.0000       0.0000       0.0000       0.0000       0.0000       0.0000       0.0000       0.0000       0.0000       0.0000     
     11      0.0000       0.0000       0.0000       0.0000       0.0000       0.0000       0.0000       0.0000       0.0000       0.0000       0.0000       0.0000     
     12      0.0000       0.0000       0.0000       0.0000       0.0000       0.0000       0.0000       0.0000       0.0000       0.0000       0.0000       0.0000     
     13      0.0000       0.0000       0.0000       0.0000       0.0000       0.0000       0.0000       0.0000       0.0000       0.0000       0.0000       0.0000     
     14      0.0000       0.0000       0.0000       0.0000       0.0000       0.0000       0.0000       0.0000       0.0000       0.0000       0.0000       0.0000     
     15      0.0000       0.0000       0.0000       0.0000       0.0000       0.0000       0.0000       0.0000       0.0000       0.0000       0.0000       0.0000     
     16      0.0000       0.0000       0.0000       0.0000       0.0000       0.0000       0.0000       0.0000       0.0000       0.0000       0.0000       0.0000     
     17      0.0000       0.0000       0.0000       0.0000       0.0000       0.0000       0.0000       0.0000       0.0000       0.0000       0.0000       0.0000     
     18      0.0000       0.0000       0.0000       0.0000       0.0000       0.0000       0.0000       0.0000       0.0000       0.0000       0.0000       0.0000     
     19      0.0000       0.0000       0.0000       0.0000       0.0000       0.0000       0.0000       0.0000       0.0000       0.0000       0.0000       0.0000     
     20      0.0000       0.0000       0.0000       0.0000       0.0000       0.0000       0.0000       0.0000       0.0000       0.0000       0.0000       0.0000     
     21      0.0000       0.0000       0.0000       0.0000       0.0000       0.0000       0.0000       0.0000       0.0000       0.0000       0.0000       0.0000     
     22      0.0000       0.0000       0.0000       0.0000       0.0000       0.0000       0.0000       0.0000       0.0000       0.0000       0.0000       0.0000     
     23      0.0000       0.0000       0.0000       0.0000       0.0000       0.0000       0.0000       0.0000       0.0000       0.0000       0.0000       0.0000     
     24      0.0000       0.0000       0.0000       0.0000       0.0000       0.0000       0.0000       0.0000       0.0000       0.0000       0.0000       0.0000     
 ----------------------------------------------------------------------------------------------------------------------------------------------------------------------




  SFR-1 BUDGET FOR ENTIRE MODEL AT END OF TIME STEP    7, STRESS PERIOD   1
  ------------------------------------------------------------------------------

     CUMULATIVE SFR-1      M       RATES FOR THIS TIME STEP      M/T
     ------------------                 ------------------------

           IN:                                      IN:
           ---                                      ---
                 GWF =           0.0000                   GWF =           0.0000
            RAINFALL =           0.0000              RAINFALL =           0.0000
         EVAPORATION =           0.0000           EVAPORATION =           0.0000
              RUNOFF =           0.0000                RUNOFF =           0.0000
          EXT-INFLOW =        3024.0000            EXT-INFLOW =          43.2000
         EXT-OUTFLOW =           0.0000           EXT-OUTFLOW =           0.0000
             STORAGE =           0.0000               STORAGE =           0.0000
            CONSTANT =           0.0000              CONSTANT =           0.0000

            TOTAL IN =        3024.0000              TOTAL IN =          43.2000

          OUT:                                     OUT:
          ----                                     ----
                 GWF =        3024.0000                   GWF =          43.2000
            RAINFALL =           0.0000              RAINFALL =           0.0000
         EVAPORATION =           0.0000           EVAPORATION =           0.0000
              RUNOFF =           0.0000                RUNOFF =           0.0000
          EXT-INFLOW =           0.0000            EXT-INFLOW =           0.0000
         EXT-OUTFLOW =           0.0000           EXT-OUTFLOW =           0.0000
             STORAGE =       2.7756E-16               STORAGE =           0.0000
            CONSTANT =           0.0000              CONSTANT =           0.0000

           TOTAL OUT =        3024.0000             TOTAL OUT =          43.2000

            IN - OUT =           0.0000              IN - OUT =           0.0000

 PERCENT DISCREPANCY =           0.00     PERCENT DISCREPANCY =           0.00



  MASS BUDGET FOR ENTIRE MODEL AT END OF TIME STEP    7, STRESS PERIOD   1
  ---------------------------------------------------------------------------------------------------

     CUMULATIVE MASS      M       RATES FOR THIS TIME STEP      M/T          PACKAGE NAME    
     ------------------                 ------------------------                     ----------------

           IN:                                      IN:
           ---                                      ---
     STORAGE-AQUEOUS =       1.6401E-17       STORAGE-AQUEOUS =       7.1160E-19     MST             
               RCH-1 =           0.0000                 RCH-1 =           0.0000     SSM             
               CHD-1 =           0.0000                 CHD-1 =           0.0000     SSM             
     FLOW-CORRECTION =       6.9955E-08       FLOW-CORRECTION =       1.0042E-09                     
                 SFT =        3024.0000                   SFT =          43.2000     SFR-1           

            TOTAL IN =        3024.0000              TOTAL IN =          43.2000

          OUT:                                     OUT:
          ----                                     ----
     STORAGE-AQUEOUS =        3024.0000       STORAGE-AQUEOUS =          43.2000     MST             
               RCH-1 =           0.0000                 RCH-1 =           0.0000     SSM             
               CHD-1 =      2.2460E-105                 CHD-1 =      2.1619E-106     SSM             
     FLOW-CORRECTION =       3.3066E-06       FLOW-CORRECTION =       9.0649E-08                     
                 SFT =           0.0000                   SFT =           0.0000     SFR-1           

           TOTAL OUT =        3024.0000             TOTAL OUT =          43.2000

            IN - OUT =       1.6374E-06              IN - OUT =       1.9538E-08

 PERCENT DISCREPANCY =           0.00     PERCENT DISCREPANCY =           0.00




         TIME SUMMARY AT END OF TIME STEP    7 IN STRESS PERIOD    1
                    SECONDS     MINUTES      HOURS       DAYS        YEARS
                    -----------------------------------------------------------
   TIME STEP LENGTH 8.64000E+05  14400.      240.00      10.000     2.73785E-02
 STRESS PERIOD TIME 6.04800E+06 1.00800E+05  1680.0      70.000     0.19165    
         TOTAL TIME 6.04800E+06 1.00800E+05  1680.0      70.000     0.19165    


end timestep


start timestep kper="1" kstp="8" mode="normal"


 FMI SETTING BUDGET TERMS FOR KSTP 8 AND KPER 1 TO BUDGET FILE TERMS FROM KSTP 1 AND KPER 1

 FMI SETTING HEAD FOR KSTP 8 AND KPER 1 TO BINARY FILE HEADS FROM KSTP 1 AND KPER 1

 SFR-1 SETTING BUDGET TERMS FOR KSTP 8 AND KPER 1 TO BUDGET FILE TERMS FROM KSTP 1 AND KPER 1

 SFT PACKAGE (SFR-1) FLOW RATES   PERIOD      1   STEP        8
 ----------------------------------------------------------------------------------------
   NUMBER   CELLID                    RATE       NAME                                    
 ----------------------------------------------------------------------------------------
     1      (1,1,169)             21.929568      SFTREACH1                               
     2      (1,1,170)             21.270432      SFTREACH2                               
     3      (1,1,171)             0.0000000      SFTREACH3                               
     4      (1,1,172)             0.0000000      SFTREACH4                               
     5      (1,1,173)             0.0000000      SFTREACH5                               
     6      (1,1,174)             0.0000000      SFTREACH6                               
     7      (1,1,175)             0.0000000      SFTREACH7                               
     8      (1,1,176)             0.0000000      SFTREACH8                               
     9      (1,1,177)             0.0000000      SFTREACH9                               
     10     (1,1,178)             0.0000000      SFTREACH10                              
     11     (1,1,179)             0.0000000      SFTREACH11                              
     12     (1,1,180)             0.0000000      SFTREACH12                              
     13     (1,1,181)             0.0000000      SFTREACH13                              
     14     (1,1,182)             0.0000000      SFTREACH14                              
     15     (1,1,183)             0.0000000      SFTREACH15                              
     16     (1,1,184)             0.0000000      SFTREACH16                              
     17     (1,1,185)             0.0000000      SFTREACH17                              
     18     (1,1,186)             0.0000000      SFTREACH18                              
     19     (1,1,187)             0.0000000      SFTREACH19                              
     20     (1,1,188)             0.0000000      SFTREACH20                              
     21     (1,1,189)             0.0000000      SFTREACH21                              
     22     (1,1,190)             0.0000000      SFTREACH22                              
     23     (1,1,191)             0.0000000      SFTREACH23                              
     24     (1,1,192)             0.0000000      SFTREACH24                              
 ----------------------------------------------------------------------------------------




 SFR-1 PACKAGE - SUMMARY OF FLOWS FOR EACH CONTROL VOLUME   PERIOD      1   STEP        8
 ----------------------------------------------------------------------------------------------------------------------------------------------------------------------
                                                                                                                                                             PERCENT   
   NUMBER      INFLOW      OUTFLOW        GWF        RAINFALL   EVAPORATION     RUNOFF     EXT INFLOW  EXT OUTFLOW    STORAGE      CONSTANT     IN - OUT    DIFFERENCE 
 ----------------------------------------------------------------------------------------------------------------------------------------------------------------------
     1       0.0000      -21.270      -21.930       0.0000       0.0000       0.0000       43.200       0.0000       0.0000       0.0000      -7.10543E-15 -1.64477E-14
     2       21.270       0.0000      -21.270       0.0000       0.0000       0.0000       0.0000       0.0000       0.0000       0.0000       3.55271E-15  1.67026E-14
     3       0.0000       0.0000       0.0000       0.0000       0.0000       0.0000       0.0000       0.0000       0.0000       0.0000       0.0000       0.0000     
     4       0.0000       0.0000       0.0000       0.0000       0.0000       0.0000       0.0000       0.0000       0.0000       0.0000       0.0000       0.0000     
     5       0.0000       0.0000       0.0000       0.0000       0.0000       0.0000       0.0000       0.0000       0.0000       0.0000       0.0000       0.0000     
     6       0.0000       0.0000       0.0000       0.0000       0.0000       0.0000       0.0000       0.0000       0.0000       0.0000       0.0000       0.0000     
     7       0.0000       0.0000       0.0000       0.0000       0.0000       0.0000       0.0000       0.0000       0.0000       0.0000       0.0000       0.0000     
     8       0.0000       0.0000       0.0000       0.0000       0.0000       0.0000       0.0000       0.0000       0.0000       0.0000       0.0000       0.0000     
     9       0.0000       0.0000       0.0000       0.0000       0.0000       0.0000       0.0000       0.0000       0.0000       0.0000       0.0000       0.0000     
     10      0.0000       0.0000       0.0000       0.0000       0.0000       0.0000       0.0000       0.0000       0.0000       0.0000       0.0000       0.0000     
     11      0.0000       0.0000       0.0000       0.0000       0.0000       0.0000       0.0000       0.0000       0.0000       0.0000       0.0000       0.0000     
     12      0.0000       0.0000       0.0000       0.0000       0.0000       0.0000       0.0000       0.0000       0.0000       0.0000       0.0000       0.0000     
     13      0.0000       0.0000       0.0000       0.0000       0.0000       0.0000       0.0000       0.0000       0.0000       0.0000       0.0000       0.0000     
     14      0.0000       0.0000       0.0000       0.0000       0.0000       0.0000       0.0000       0.0000       0.0000       0.0000       0.0000       0.0000     
     15      0.0000       0.0000       0.0000       0.0000       0.0000       0.0000       0.0000       0.0000       0.0000       0.0000       0.0000       0.0000     
     16      0.0000       0.0000       0.0000       0.0000       0.0000       0.0000       0.0000       0.0000       0.0000       0.0000       0.0000       0.0000     
     17      0.0000       0.0000       0.0000       0.0000       0.0000       0.0000       0.0000       0.0000       0.0000       0.0000       0.0000       0.0000     
     18      0.0000       0.0000       0.0000       0.0000       0.0000       0.0000       0.0000       0.0000       0.0000       0.0000       0.0000       0.0000     
     19      0.0000       0.0000       0.0000       0.0000       0.0000       0.0000       0.0000       0.0000       0.0000       0.0000       0.0000       0.0000     
     20      0.0000       0.0000       0.0000       0.0000       0.0000       0.0000       0.0000       0.0000       0.0000       0.0000       0.0000       0.0000     
     21      0.0000       0.0000       0.0000       0.0000       0.0000       0.0000       0.0000       0.0000       0.0000       0.0000       0.0000       0.0000     
     22      0.0000       0.0000       0.0000       0.0000       0.0000       0.0000       0.0000       0.0000       0.0000       0.0000       0.0000       0.0000     
     23      0.0000       0.0000       0.0000       0.0000       0.0000       0.0000       0.0000       0.0000       0.0000       0.0000       0.0000       0.0000     
     24      0.0000       0.0000       0.0000       0.0000       0.0000       0.0000       0.0000       0.0000       0.0000       0.0000       0.0000       0.0000     
 ----------------------------------------------------------------------------------------------------------------------------------------------------------------------




  SFR-1 BUDGET FOR ENTIRE MODEL AT END OF TIME STEP    8, STRESS PERIOD   1
  ------------------------------------------------------------------------------

     CUMULATIVE SFR-1      M       RATES FOR THIS TIME STEP      M/T
     ------------------                 ------------------------

           IN:                                      IN:
           ---                                      ---
                 GWF =           0.0000                   GWF =           0.0000
            RAINFALL =           0.0000              RAINFALL =           0.0000
         EVAPORATION =           0.0000           EVAPORATION =           0.0000
              RUNOFF =           0.0000                RUNOFF =           0.0000
          EXT-INFLOW =        3456.0000            EXT-INFLOW =          43.2000
         EXT-OUTFLOW =           0.0000           EXT-OUTFLOW =           0.0000
             STORAGE =           0.0000               STORAGE =           0.0000
            CONSTANT =           0.0000              CONSTANT =           0.0000

            TOTAL IN =        3456.0000              TOTAL IN =          43.2000

          OUT:                                     OUT:
          ----                                     ----
                 GWF =        3456.0000                   GWF =          43.2000
            RAINFALL =           0.0000              RAINFALL =           0.0000
         EVAPORATION =           0.0000           EVAPORATION =           0.0000
              RUNOFF =           0.0000                RUNOFF =           0.0000
          EXT-INFLOW =           0.0000            EXT-INFLOW =           0.0000
         EXT-OUTFLOW =           0.0000           EXT-OUTFLOW =           0.0000
             STORAGE =       2.7756E-16               STORAGE =           0.0000
            CONSTANT =           0.0000              CONSTANT =           0.0000

           TOTAL OUT =        3456.0000             TOTAL OUT =          43.2000

            IN - OUT =           0.0000              IN - OUT =           0.0000

 PERCENT DISCREPANCY =           0.00     PERCENT DISCREPANCY =           0.00



  MASS BUDGET FOR ENTIRE MODEL AT END OF TIME STEP    8, STRESS PERIOD   1
  ---------------------------------------------------------------------------------------------------

     CUMULATIVE MASS      M       RATES FOR THIS TIME STEP      M/T          PACKAGE NAME    
     ------------------                 ------------------------                     ----------------

           IN:                                      IN:
           ---                                      ---
     STORAGE-AQUEOUS =       2.3517E-17       STORAGE-AQUEOUS =       7.1160E-19     MST             
               RCH-1 =           0.0000                 RCH-1 =           0.0000     SSM             
               CHD-1 =           0.0000                 CHD-1 =           0.0000     SSM             
     FLOW-CORRECTION =       8.0002E-08       FLOW-CORRECTION =       1.0046E-09                     
                 SFT =        3456.0000                   SFT =          43.2000     SFR-1           

            TOTAL IN =        3456.0000              TOTAL IN =          43.2000

          OUT:                                     OUT:
          ----                                     ----
     STORAGE-AQUEOUS =        3456.0000       STORAGE-AQUEOUS =          43.2000     MST             
               RCH-1 =           0.0000                 RCH-1 =           0.0000     SSM             
               CHD-1 =      5.1593E-104                 CHD-1 =      4.9347E-105     SSM             
     FLOW-CORRECTION =       4.3599E-06       FLOW-CORRECTION =       1.0533E-07                     
                 SFT =           0.0000                   SFT =           0.0000     SFR-1           

           TOTAL OUT =        3456.0000             TOTAL OUT =          43.2000

            IN - OUT =       1.8050E-06              IN - OUT =       1.6758E-08

 PERCENT DISCREPANCY =           0.00     PERCENT DISCREPANCY =           0.00




         TIME SUMMARY AT END OF TIME STEP    8 IN STRESS PERIOD    1
                    SECONDS     MINUTES      HOURS       DAYS        YEARS
                    -----------------------------------------------------------
   TIME STEP LENGTH 8.64000E+05  14400.      240.00      10.000     2.73785E-02
 STRESS PERIOD TIME 6.91200E+06 1.15200E+05  1920.0      80.000     0.21903    
         TOTAL TIME 6.91200E+06 1.15200E+05  1920.0      80.000     0.21903    


end timestep


start timestep kper="1" kstp="9" mode="normal"


 FMI SETTING BUDGET TERMS FOR KSTP 9 AND KPER 1 TO BUDGET FILE TERMS FROM KSTP 1 AND KPER 1

 FMI SETTING HEAD FOR KSTP 9 AND KPER 1 TO BINARY FILE HEADS FROM KSTP 1 AND KPER 1

 SFR-1 SETTING BUDGET TERMS FOR KSTP 9 AND KPER 1 TO BUDGET FILE TERMS FROM KSTP 1 AND KPER 1

 SFT PACKAGE (SFR-1) FLOW RATES   PERIOD      1   STEP        9
 ----------------------------------------------------------------------------------------
   NUMBER   CELLID                    RATE       NAME                                    
 ----------------------------------------------------------------------------------------
     1      (1,1,169)             21.929568      SFTREACH1                               
     2      (1,1,170)             21.270432      SFTREACH2                               
     3      (1,1,171)             0.0000000      SFTREACH3                               
     4      (1,1,172)             0.0000000      SFTREACH4                               
     5      (1,1,173)             0.0000000      SFTREACH5                               
     6      (1,1,174)             0.0000000      SFTREACH6                               
     7      (1,1,175)             0.0000000      SFTREACH7                               
     8      (1,1,176)             0.0000000      SFTREACH8                               
     9      (1,1,177)             0.0000000      SFTREACH9                               
     10     (1,1,178)             0.0000000      SFTREACH10                              
     11     (1,1,179)             0.0000000      SFTREACH11                              
     12     (1,1,180)             0.0000000      SFTREACH12                              
     13     (1,1,181)             0.0000000      SFTREACH13                              
     14     (1,1,182)             0.0000000      SFTREACH14                              
     15     (1,1,183)             0.0000000      SFTREACH15                              
     16     (1,1,184)             0.0000000      SFTREACH16                              
     17     (1,1,185)             0.0000000      SFTREACH17                              
     18     (1,1,186)             0.0000000      SFTREACH18                              
     19     (1,1,187)             0.0000000      SFTREACH19                              
     20     (1,1,188)             0.0000000      SFTREACH20                              
     21     (1,1,189)             0.0000000      SFTREACH21                              
     22     (1,1,190)             0.0000000      SFTREACH22                              
     23     (1,1,191)             0.0000000      SFTREACH23                              
     24     (1,1,192)             0.0000000      SFTREACH24                              
 ----------------------------------------------------------------------------------------




 SFR-1 PACKAGE - SUMMARY OF FLOWS FOR EACH CONTROL VOLUME   PERIOD      1   STEP        9
 ----------------------------------------------------------------------------------------------------------------------------------------------------------------------
                                                                                                                                                             PERCENT   
   NUMBER      INFLOW      OUTFLOW        GWF        RAINFALL   EVAPORATION     RUNOFF     EXT INFLOW  EXT OUTFLOW    STORAGE      CONSTANT     IN - OUT    DIFFERENCE 
 ----------------------------------------------------------------------------------------------------------------------------------------------------------------------
     1       0.0000      -21.270      -21.930       0.0000       0.0000       0.0000       43.200       0.0000       0.0000       0.0000      -7.10543E-15 -1.64477E-14
     2       21.270       0.0000      -21.270       0.0000       0.0000       0.0000       0.0000       0.0000       0.0000       0.0000       3.55271E-15  1.67026E-14
     3       0.0000       0.0000       0.0000       0.0000       0.0000       0.0000       0.0000       0.0000       0.0000       0.0000       0.0000       0.0000     
     4       0.0000       0.0000       0.0000       0.0000       0.0000       0.0000       0.0000       0.0000       0.0000       0.0000       0.0000       0.0000     
     5       0.0000       0.0000       0.0000       0.0000       0.0000       0.0000       0.0000       0.0000       0.0000       0.0000       0.0000       0.0000     
     6       0.0000       0.0000       0.0000       0.0000       0.0000       0.0000       0.0000       0.0000       0.0000       0.0000       0.0000       0.0000     
     7       0.0000       0.0000       0.0000       0.0000       0.0000       0.0000       0.0000       0.0000       0.0000       0.0000       0.0000       0.0000     
     8       0.0000       0.0000       0.0000       0.0000       0.0000       0.0000       0.0000       0.0000       0.0000       0.0000       0.0000       0.0000     
     9       0.0000       0.0000       0.0000       0.0000       0.0000       0.0000       0.0000       0.0000       0.0000       0.0000       0.0000       0.0000     
     10      0.0000       0.0000       0.0000       0.0000       0.0000       0.0000       0.0000       0.0000       0.0000       0.0000       0.0000       0.0000     
     11      0.0000       0.0000       0.0000       0.0000       0.0000       0.0000       0.0000       0.0000       0.0000       0.0000       0.0000       0.0000     
     12      0.0000       0.0000       0.0000       0.0000       0.0000       0.0000       0.0000       0.0000       0.0000       0.0000       0.0000       0.0000     
     13      0.0000       0.0000       0.0000       0.0000       0.0000       0.0000       0.0000       0.0000       0.0000       0.0000       0.0000       0.0000     
     14      0.0000       0.0000       0.0000       0.0000       0.0000       0.0000       0.0000       0.0000       0.0000       0.0000       0.0000       0.0000     
     15      0.0000       0.0000       0.0000       0.0000       0.0000       0.0000       0.0000       0.0000       0.0000       0.0000       0.0000       0.0000     
     16      0.0000       0.0000       0.0000       0.0000       0.0000       0.0000       0.0000       0.0000       0.0000       0.0000       0.0000       0.0000     
     17      0.0000       0.0000       0.0000       0.0000       0.0000       0.0000       0.0000       0.0000       0.0000       0.0000       0.0000       0.0000     
     18      0.0000       0.0000       0.0000       0.0000       0.0000       0.0000       0.0000       0.0000       0.0000       0.0000       0.0000       0.0000     
     19      0.0000       0.0000       0.0000       0.0000       0.0000       0.0000       0.0000       0.0000       0.0000       0.0000       0.0000       0.0000     
     20      0.0000       0.0000       0.0000       0.0000       0.0000       0.0000       0.0000       0.0000       0.0000       0.0000       0.0000       0.0000     
     21      0.0000       0.0000       0.0000       0.0000       0.0000       0.0000       0.0000       0.0000       0.0000       0.0000       0.0000       0.0000     
     22      0.0000       0.0000       0.0000       0.0000       0.0000       0.0000       0.0000       0.0000       0.0000       0.0000       0.0000       0.0000     
     23      0.0000       0.0000       0.0000       0.0000       0.0000       0.0000       0.0000       0.0000       0.0000       0.0000       0.0000       0.0000     
     24      0.0000       0.0000       0.0000       0.0000       0.0000       0.0000       0.0000       0.0000       0.0000       0.0000       0.0000       0.0000     
 ----------------------------------------------------------------------------------------------------------------------------------------------------------------------




  SFR-1 BUDGET FOR ENTIRE MODEL AT END OF TIME STEP    9, STRESS PERIOD   1
  ------------------------------------------------------------------------------

     CUMULATIVE SFR-1      M       RATES FOR THIS TIME STEP      M/T
     ------------------                 ------------------------

           IN:                                      IN:
           ---                                      ---
                 GWF =           0.0000                   GWF =           0.0000
            RAINFALL =           0.0000              RAINFALL =           0.0000
         EVAPORATION =           0.0000           EVAPORATION =           0.0000
              RUNOFF =           0.0000                RUNOFF =           0.0000
          EXT-INFLOW =        3888.0000            EXT-INFLOW =          43.2000
         EXT-OUTFLOW =           0.0000           EXT-OUTFLOW =           0.0000
             STORAGE =           0.0000               STORAGE =           0.0000
            CONSTANT =           0.0000              CONSTANT =           0.0000

            TOTAL IN =        3888.0000              TOTAL IN =          43.2000

          OUT:                                     OUT:
          ----                                     ----
                 GWF =        3888.0000                   GWF =          43.2000
            RAINFALL =           0.0000              RAINFALL =           0.0000
         EVAPORATION =           0.0000           EVAPORATION =           0.0000
              RUNOFF =           0.0000                RUNOFF =           0.0000
          EXT-INFLOW =           0.0000            EXT-INFLOW =           0.0000
         EXT-OUTFLOW =           0.0000           EXT-OUTFLOW =           0.0000
             STORAGE =       2.7756E-16               STORAGE =           0.0000
            CONSTANT =           0.0000              CONSTANT =           0.0000

           TOTAL OUT =        3888.0000             TOTAL OUT =          43.2000

            IN - OUT =           0.0000              IN - OUT =           0.0000

 PERCENT DISCREPANCY =           0.00     PERCENT DISCREPANCY =           0.00



  MASS BUDGET FOR ENTIRE MODEL AT END OF TIME STEP    9, STRESS PERIOD   1
  ---------------------------------------------------------------------------------------------------

     CUMULATIVE MASS      M       RATES FOR THIS TIME STEP      M/T          PACKAGE NAME    
     ------------------                 ------------------------                     ----------------

           IN:                                      IN:
           ---                                      ---
     STORAGE-AQUEOUS =       3.0633E-17       STORAGE-AQUEOUS =       7.1160E-19     MST             
               RCH-1 =           0.0000                 RCH-1 =           0.0000     SSM             
               CHD-1 =           0.0000                 CHD-1 =           0.0000     SSM             
     FLOW-CORRECTION =       9.0053E-08       FLOW-CORRECTION =       1.0051E-09                     
                 SFT =        3888.0000                   SFT =          43.2000     SFR-1           

            TOTAL IN =        3888.0000              TOTAL IN =          43.2000

          OUT:                                     OUT:
          ----                                     ----
     STORAGE-AQUEOUS =        3888.0000       STORAGE-AQUEOUS =          43.2000     MST             
               RCH-1 =           0.0000                 RCH-1 =           0.0000     SSM             
               CHD-1 =      1.0414E-102                 CHD-1 =      9.8983E-104     SSM             
     FLOW-CORRECTION =       5.5587E-06       FLOW-CORRECTION =       1.1988E-07                     
                 SFT =           0.0000                   SFT =           0.0000     SFR-1           

           TOTAL OUT =        3888.0000             TOTAL OUT =          43.2000

            IN - OUT =       1.9460E-06              IN - OUT =       1.4095E-08

 PERCENT DISCREPANCY =           0.00     PERCENT DISCREPANCY =           0.00




         TIME SUMMARY AT END OF TIME STEP    9 IN STRESS PERIOD    1
                    SECONDS     MINUTES      HOURS       DAYS        YEARS
                    -----------------------------------------------------------
   TIME STEP LENGTH 8.64000E+05  14400.      240.00      10.000     2.73785E-02
 STRESS PERIOD TIME 7.77600E+06 1.29600E+05  2160.0      90.000     0.24641    
         TOTAL TIME 7.77600E+06 1.29600E+05  2160.0      90.000     0.24641    


end timestep


start timestep kper="1" kstp="10" mode="normal"


 FMI SETTING BUDGET TERMS FOR KSTP 10 AND KPER 1 TO BUDGET FILE TERMS FROM KSTP 1 AND KPER 1

 FMI SETTING HEAD FOR KSTP 10 AND KPER 1 TO BINARY FILE HEADS FROM KSTP 1 AND KPER 1

 SFR-1 SETTING BUDGET TERMS FOR KSTP 10 AND KPER 1 TO BUDGET FILE TERMS FROM KSTP 1 AND KPER 1

 SFT PACKAGE (SFR-1) FLOW RATES   PERIOD      1   STEP       10
 ----------------------------------------------------------------------------------------
   NUMBER   CELLID                    RATE       NAME                                    
 ----------------------------------------------------------------------------------------
     1      (1,1,169)             21.929568      SFTREACH1                               
     2      (1,1,170)             21.270432      SFTREACH2                               
     3      (1,1,171)             0.0000000      SFTREACH3                               
     4      (1,1,172)             0.0000000      SFTREACH4                               
     5      (1,1,173)             0.0000000      SFTREACH5                               
     6      (1,1,174)             0.0000000      SFTREACH6                               
     7      (1,1,175)             0.0000000      SFTREACH7                               
     8      (1,1,176)             0.0000000      SFTREACH8                               
     9      (1,1,177)             0.0000000      SFTREACH9                               
     10     (1,1,178)             0.0000000      SFTREACH10                              
     11     (1,1,179)             0.0000000      SFTREACH11                              
     12     (1,1,180)             0.0000000      SFTREACH12                              
     13     (1,1,181)             0.0000000      SFTREACH13                              
     14     (1,1,182)             0.0000000      SFTREACH14                              
     15     (1,1,183)             0.0000000      SFTREACH15                              
     16     (1,1,184)             0.0000000      SFTREACH16                              
     17     (1,1,185)             0.0000000      SFTREACH17                              
     18     (1,1,186)             0.0000000      SFTREACH18                              
     19     (1,1,187)             0.0000000      SFTREACH19                              
     20     (1,1,188)             0.0000000      SFTREACH20                              
     21     (1,1,189)             0.0000000      SFTREACH21                              
     22     (1,1,190)             0.0000000      SFTREACH22                              
     23     (1,1,191)             0.0000000      SFTREACH23                              
     24     (1,1,192)             0.0000000      SFTREACH24                              
 ----------------------------------------------------------------------------------------




 SFR-1 PACKAGE - SUMMARY OF FLOWS FOR EACH CONTROL VOLUME   PERIOD      1   STEP       10
 ----------------------------------------------------------------------------------------------------------------------------------------------------------------------
                                                                                                                                                             PERCENT   
   NUMBER      INFLOW      OUTFLOW        GWF        RAINFALL   EVAPORATION     RUNOFF     EXT INFLOW  EXT OUTFLOW    STORAGE      CONSTANT     IN - OUT    DIFFERENCE 
 ----------------------------------------------------------------------------------------------------------------------------------------------------------------------
     1       0.0000      -21.270      -21.930       0.0000       0.0000       0.0000       43.200       0.0000       0.0000       0.0000      -7.10543E-15 -1.64477E-14
     2       21.270       0.0000      -21.270       0.0000       0.0000       0.0000       0.0000       0.0000       0.0000       0.0000       3.55271E-15  1.67026E-14
     3       0.0000       0.0000       0.0000       0.0000       0.0000       0.0000       0.0000       0.0000       0.0000       0.0000       0.0000       0.0000     
     4       0.0000       0.0000       0.0000       0.0000       0.0000       0.0000       0.0000       0.0000       0.0000       0.0000       0.0000       0.0000     
     5       0.0000       0.0000       0.0000       0.0000       0.0000       0.0000       0.0000       0.0000       0.0000       0.0000       0.0000       0.0000     
     6       0.0000       0.0000       0.0000       0.0000       0.0000       0.0000       0.0000       0.0000       0.0000       0.0000       0.0000       0.0000     
     7       0.0000       0.0000       0.0000       0.0000       0.0000       0.0000       0.0000       0.0000       0.0000       0.0000       0.0000       0.0000     
     8       0.0000       0.0000       0.0000       0.0000       0.0000       0.0000       0.0000       0.0000       0.0000       0.0000       0.0000       0.0000     
     9       0.0000       0.0000       0.0000       0.0000       0.0000       0.0000       0.0000       0.0000       0.0000       0.0000       0.0000       0.0000     
     10      0.0000       0.0000       0.0000       0.0000       0.0000       0.0000       0.0000       0.0000       0.0000       0.0000       0.0000       0.0000     
     11      0.0000       0.0000       0.0000       0.0000       0.0000       0.0000       0.0000       0.0000       0.0000       0.0000       0.0000       0.0000     
     12      0.0000       0.0000       0.0000       0.0000       0.0000       0.0000       0.0000       0.0000       0.0000       0.0000       0.0000       0.0000     
     13      0.0000       0.0000       0.0000       0.0000       0.0000       0.0000       0.0000       0.0000       0.0000       0.0000       0.0000       0.0000     
     14      0.0000       0.0000       0.0000       0.0000       0.0000       0.0000       0.0000       0.0000       0.0000       0.0000       0.0000       0.0000     
     15      0.0000       0.0000       0.0000       0.0000       0.0000       0.0000       0.0000       0.0000       0.0000       0.0000       0.0000       0.0000     
     16      0.0000       0.0000       0.0000       0.0000       0.0000       0.0000       0.0000       0.0000       0.0000       0.0000       0.0000       0.0000     
     17      0.0000       0.0000       0.0000       0.0000       0.0000       0.0000       0.0000       0.0000       0.0000       0.0000       0.0000       0.0000     
     18      0.0000       0.0000       0.0000       0.0000       0.0000       0.0000       0.0000       0.0000       0.0000       0.0000       0.0000       0.0000     
     19      0.0000       0.0000       0.0000       0.0000       0.0000       0.0000       0.0000       0.0000       0.0000       0.0000       0.0000       0.0000     
     20      0.0000       0.0000       0.0000       0.0000       0.0000       0.0000       0.0000       0.0000       0.0000       0.0000       0.0000       0.0000     
     21      0.0000       0.0000       0.0000       0.0000       0.0000       0.0000       0.0000       0.0000       0.0000       0.0000       0.0000       0.0000     
     22      0.0000       0.0000       0.0000       0.0000       0.0000       0.0000       0.0000       0.0000       0.0000       0.0000       0.0000       0.0000     
     23      0.0000       0.0000       0.0000       0.0000       0.0000       0.0000       0.0000       0.0000       0.0000       0.0000       0.0000       0.0000     
     24      0.0000       0.0000       0.0000       0.0000       0.0000       0.0000       0.0000       0.0000       0.0000       0.0000       0.0000       0.0000     
 ----------------------------------------------------------------------------------------------------------------------------------------------------------------------



 CONCENTRATION WILL BE SAVED ON UNIT 1024 AT END OF TIME STEP   10, STRESS PERIOD    1


  SFR-1 BUDGET FOR ENTIRE MODEL AT END OF TIME STEP   10, STRESS PERIOD   1
  ------------------------------------------------------------------------------

     CUMULATIVE SFR-1      M       RATES FOR THIS TIME STEP      M/T
     ------------------                 ------------------------

           IN:                                      IN:
           ---                                      ---
                 GWF =           0.0000                   GWF =           0.0000
            RAINFALL =           0.0000              RAINFALL =           0.0000
         EVAPORATION =           0.0000           EVAPORATION =           0.0000
              RUNOFF =           0.0000                RUNOFF =           0.0000
          EXT-INFLOW =        4320.0000            EXT-INFLOW =          43.2000
         EXT-OUTFLOW =           0.0000           EXT-OUTFLOW =           0.0000
             STORAGE =           0.0000               STORAGE =           0.0000
            CONSTANT =           0.0000              CONSTANT =           0.0000

            TOTAL IN =        4320.0000              TOTAL IN =          43.2000

          OUT:                                     OUT:
          ----                                     ----
                 GWF =        4320.0000                   GWF =          43.2000
            RAINFALL =           0.0000              RAINFALL =           0.0000
         EVAPORATION =           0.0000           EVAPORATION =           0.0000
              RUNOFF =           0.0000                RUNOFF =           0.0000
          EXT-INFLOW =           0.0000            EXT-INFLOW =           0.0000
         EXT-OUTFLOW =           0.0000           EXT-OUTFLOW =           0.0000
             STORAGE =       2.7756E-16               STORAGE =           0.0000
            CONSTANT =           0.0000              CONSTANT =           0.0000

           TOTAL OUT =        4320.0000             TOTAL OUT =          43.2000

            IN - OUT =           0.0000              IN - OUT =           0.0000

 PERCENT DISCREPANCY =           0.00     PERCENT DISCREPANCY =           0.00



  MASS BUDGET FOR ENTIRE MODEL AT END OF TIME STEP   10, STRESS PERIOD   1
  ---------------------------------------------------------------------------------------------------

     CUMULATIVE MASS      M       RATES FOR THIS TIME STEP      M/T          PACKAGE NAME    
     ------------------                 ------------------------                     ----------------

           IN:                                      IN:
           ---                                      ---
     STORAGE-AQUEOUS =       3.7749E-17       STORAGE-AQUEOUS =       7.1160E-19     MST             
               RCH-1 =           0.0000                 RCH-1 =           0.0000     SSM             
               CHD-1 =           0.0000                 CHD-1 =           0.0000     SSM             
     FLOW-CORRECTION =       1.0011E-07       FLOW-CORRECTION =       1.0055E-09                     
                 SFT =        4320.0000                   SFT =          43.2000     SFR-1           

            TOTAL IN =        4320.0000              TOTAL IN =          43.2000

          OUT:                                     OUT:
          ----                                     ----
     STORAGE-AQUEOUS =        4320.0000       STORAGE-AQUEOUS =          43.2000     MST             
               RCH-1 =           0.0000                 RCH-1 =           0.0000     SSM             
               CHD-1 =      1.8765E-101                 CHD-1 =      1.7724E-102     SSM             
     FLOW-CORRECTION =       6.9020E-06       FLOW-CORRECTION =       1.3433E-07                     
                 SFT =           0.0000                   SFT =           0.0000     SFR-1           

           TOTAL OUT =        4320.0000             TOTAL OUT =          43.2000

            IN - OUT =       2.0419E-06              IN - OUT =       9.5894E-09

 PERCENT DISCREPANCY =           0.00     PERCENT DISCREPANCY =           0.00




         TIME SUMMARY AT END OF TIME STEP   10 IN STRESS PERIOD    1
                    SECONDS     MINUTES      HOURS       DAYS        YEARS
                    -----------------------------------------------------------
   TIME STEP LENGTH 8.64000E+05  14400.      240.00      10.000     2.73785E-02
 STRESS PERIOD TIME 8.64000E+06 1.44000E+05  2400.0      100.00     0.27379    
         TOTAL TIME 8.64000E+06 1.44000E+05  2400.0      100.00     0.27379    


end timestep


start timestep kper="1" kstp="11" mode="normal"


 FMI SETTING BUDGET TERMS FOR KSTP 11 AND KPER 1 TO BUDGET FILE TERMS FROM KSTP 1 AND KPER 1

 FMI SETTING HEAD FOR KSTP 11 AND KPER 1 TO BINARY FILE HEADS FROM KSTP 1 AND KPER 1

 SFR-1 SETTING BUDGET TERMS FOR KSTP 11 AND KPER 1 TO BUDGET FILE TERMS FROM KSTP 1 AND KPER 1

 SFT PACKAGE (SFR-1) FLOW RATES   PERIOD      1   STEP       11
 ----------------------------------------------------------------------------------------
   NUMBER   CELLID                    RATE       NAME                                    
 ----------------------------------------------------------------------------------------
     1      (1,1,169)             21.929568      SFTREACH1                               
     2      (1,1,170)             21.270432      SFTREACH2                               
     3      (1,1,171)             0.0000000      SFTREACH3                               
     4      (1,1,172)             0.0000000      SFTREACH4                               
     5      (1,1,173)             0.0000000      SFTREACH5                               
     6      (1,1,174)             0.0000000      SFTREACH6                               
     7      (1,1,175)             0.0000000      SFTREACH7                               
     8      (1,1,176)             0.0000000      SFTREACH8                               
     9      (1,1,177)             0.0000000      SFTREACH9                               
     10     (1,1,178)             0.0000000      SFTREACH10                              
     11     (1,1,179)             0.0000000      SFTREACH11                              
     12     (1,1,180)             0.0000000      SFTREACH12                              
     13     (1,1,181)             0.0000000      SFTREACH13                              
     14     (1,1,182)             0.0000000      SFTREACH14                              
     15     (1,1,183)             0.0000000      SFTREACH15                              
     16     (1,1,184)             0.0000000      SFTREACH16                              
     17     (1,1,185)             0.0000000      SFTREACH17                              
     18     (1,1,186)             0.0000000      SFTREACH18                              
     19     (1,1,187)             0.0000000      SFTREACH19                              
     20     (1,1,188)             0.0000000      SFTREACH20                              
     21     (1,1,189)             0.0000000      SFTREACH21                              
     22     (1,1,190)             0.0000000      SFTREACH22                              
     23     (1,1,191)             0.0000000      SFTREACH23                              
     24     (1,1,192)             0.0000000      SFTREACH24                              
 ----------------------------------------------------------------------------------------




 SFR-1 PACKAGE - SUMMARY OF FLOWS FOR EACH CONTROL VOLUME   PERIOD      1   STEP       11
 ----------------------------------------------------------------------------------------------------------------------------------------------------------------------
                                                                                                                                                             PERCENT   
   NUMBER      INFLOW      OUTFLOW        GWF        RAINFALL   EVAPORATION     RUNOFF     EXT INFLOW  EXT OUTFLOW    STORAGE      CONSTANT     IN - OUT    DIFFERENCE 
 ----------------------------------------------------------------------------------------------------------------------------------------------------------------------
     1       0.0000      -21.270      -21.930       0.0000       0.0000       0.0000       43.200       0.0000       0.0000       0.0000      -7.10543E-15 -1.64477E-14
     2       21.270       0.0000      -21.270       0.0000       0.0000       0.0000       0.0000       0.0000       0.0000       0.0000       3.55271E-15  1.67026E-14
     3       0.0000       0.0000       0.0000       0.0000       0.0000       0.0000       0.0000       0.0000       0.0000       0.0000       0.0000       0.0000     
     4       0.0000       0.0000       0.0000       0.0000       0.0000       0.0000       0.0000       0.0000       0.0000       0.0000       0.0000       0.0000     
     5       0.0000       0.0000       0.0000       0.0000       0.0000       0.0000       0.0000       0.0000       0.0000       0.0000       0.0000       0.0000     
     6       0.0000       0.0000       0.0000       0.0000       0.0000       0.0000       0.0000       0.0000       0.0000       0.0000       0.0000       0.0000     
     7       0.0000       0.0000       0.0000       0.0000       0.0000       0.0000       0.0000       0.0000       0.0000       0.0000       0.0000       0.0000     
     8       0.0000       0.0000       0.0000       0.0000       0.0000       0.0000       0.0000       0.0000       0.0000       0.0000       0.0000       0.0000     
     9       0.0000       0.0000       0.0000       0.0000       0.0000       0.0000       0.0000       0.0000       0.0000       0.0000       0.0000       0.0000     
     10      0.0000       0.0000       0.0000       0.0000       0.0000       0.0000       0.0000       0.0000       0.0000       0.0000       0.0000       0.0000     
     11      0.0000       0.0000       0.0000       0.0000       0.0000       0.0000       0.0000       0.0000       0.0000       0.0000       0.0000       0.0000     
     12      0.0000       0.0000       0.0000       0.0000       0.0000       0.0000       0.0000       0.0000       0.0000       0.0000       0.0000       0.0000     
     13      0.0000       0.0000       0.0000       0.0000       0.0000       0.0000       0.0000       0.0000       0.0000       0.0000       0.0000       0.0000     
     14      0.0000       0.0000       0.0000       0.0000       0.0000       0.0000       0.0000       0.0000       0.0000       0.0000       0.0000       0.0000     
     15      0.0000       0.0000       0.0000       0.0000       0.0000       0.0000       0.0000       0.0000       0.0000       0.0000       0.0000       0.0000     
     16      0.0000       0.0000       0.0000       0.0000       0.0000       0.0000       0.0000       0.0000       0.0000       0.0000       0.0000       0.0000     
     17      0.0000       0.0000       0.0000       0.0000       0.0000       0.0000       0.0000       0.0000       0.0000       0.0000       0.0000       0.0000     
     18      0.0000       0.0000       0.0000       0.0000       0.0000       0.0000       0.0000       0.0000       0.0000       0.0000       0.0000       0.0000     
     19      0.0000       0.0000       0.0000       0.0000       0.0000       0.0000       0.0000       0.0000       0.0000       0.0000       0.0000       0.0000     
     20      0.0000       0.0000       0.0000       0.0000       0.0000       0.0000       0.0000       0.0000       0.0000       0.0000       0.0000       0.0000     
     21      0.0000       0.0000       0.0000       0.0000       0.0000       0.0000       0.0000       0.0000       0.0000       0.0000       0.0000       0.0000     
     22      0.0000       0.0000       0.0000       0.0000       0.0000       0.0000       0.0000       0.0000       0.0000       0.0000       0.0000       0.0000     
     23      0.0000       0.0000       0.0000       0.0000       0.0000       0.0000       0.0000       0.0000       0.0000       0.0000       0.0000       0.0000     
     24      0.0000       0.0000       0.0000       0.0000       0.0000       0.0000       0.0000       0.0000       0.0000       0.0000       0.0000       0.0000     
 ----------------------------------------------------------------------------------------------------------------------------------------------------------------------




  SFR-1 BUDGET FOR ENTIRE MODEL AT END OF TIME STEP   11, STRESS PERIOD   1
  ------------------------------------------------------------------------------

     CUMULATIVE SFR-1      M       RATES FOR THIS TIME STEP      M/T
     ------------------                 ------------------------

           IN:                                      IN:
           ---                                      ---
                 GWF =           0.0000                   GWF =           0.0000
            RAINFALL =           0.0000              RAINFALL =           0.0000
         EVAPORATION =           0.0000           EVAPORATION =           0.0000
              RUNOFF =           0.0000                RUNOFF =           0.0000
          EXT-INFLOW =        4752.0000            EXT-INFLOW =          43.2000
         EXT-OUTFLOW =           0.0000           EXT-OUTFLOW =           0.0000
             STORAGE =           0.0000               STORAGE =           0.0000
            CONSTANT =           0.0000              CONSTANT =           0.0000

            TOTAL IN =        4752.0000              TOTAL IN =          43.2000

          OUT:                                     OUT:
          ----                                     ----
                 GWF =        4752.0000                   GWF =          43.2000
            RAINFALL =           0.0000              RAINFALL =           0.0000
         EVAPORATION =           0.0000           EVAPORATION =           0.0000
              RUNOFF =           0.0000                RUNOFF =           0.0000
          EXT-INFLOW =           0.0000            EXT-INFLOW =           0.0000
         EXT-OUTFLOW =           0.0000           EXT-OUTFLOW =           0.0000
             STORAGE =       2.7756E-16               STORAGE =           0.0000
            CONSTANT =           0.0000              CONSTANT =           0.0000

           TOTAL OUT =        4752.0000             TOTAL OUT =          43.2000

            IN - OUT =           0.0000              IN - OUT =           0.0000

 PERCENT DISCREPANCY =           0.00     PERCENT DISCREPANCY =           0.00



  MASS BUDGET FOR ENTIRE MODEL AT END OF TIME STEP   11, STRESS PERIOD   1
  ---------------------------------------------------------------------------------------------------

     CUMULATIVE MASS      M       RATES FOR THIS TIME STEP      M/T          PACKAGE NAME    
     ------------------                 ------------------------                     ----------------

           IN:                                      IN:
           ---                                      ---
     STORAGE-AQUEOUS =       4.4865E-17       STORAGE-AQUEOUS =       7.1160E-19     MST             
               RCH-1 =           0.0000                 RCH-1 =           0.0000     SSM             
               CHD-1 =           0.0000                 CHD-1 =           0.0000     SSM             
     FLOW-CORRECTION =       1.1017E-07       FLOW-CORRECTION =       1.0060E-09                     
                 SFT =        4752.0000                   SFT =          43.2000     SFR-1           

            TOTAL IN =        4752.0000              TOTAL IN =          43.2000

          OUT:                                     OUT:
          ----                                     ----
     STORAGE-AQUEOUS =        4752.0000       STORAGE-AQUEOUS =          43.2000     MST             
               RCH-1 =           0.0000                 RCH-1 =           0.0000     SSM             
               CHD-1 =       3.0560-100                 CHD-1 =      2.8684E-101     SSM             
     FLOW-CORRECTION =       8.3895E-06       FLOW-CORRECTION =       1.4875E-07                     
                 SFT =           0.0000                   SFT =           0.0000     SFR-1           

           TOTAL OUT =        4752.0000             TOTAL OUT =          43.2000

            IN - OUT =       2.0296E-06              IN - OUT =      -1.2241E-09

 PERCENT DISCREPANCY =           0.00     PERCENT DISCREPANCY =          -0.00




         TIME SUMMARY AT END OF TIME STEP   11 IN STRESS PERIOD    1
                    SECONDS     MINUTES      HOURS       DAYS        YEARS
                    -----------------------------------------------------------
   TIME STEP LENGTH 8.64000E+05  14400.      240.00      10.000     2.73785E-02
 STRESS PERIOD TIME 9.50400E+06 1.58400E+05  2640.0      110.00     0.30116    
         TOTAL TIME 9.50400E+06 1.58400E+05  2640.0      110.00     0.30116    


end timestep


start timestep kper="1" kstp="12" mode="normal"


 FMI SETTING BUDGET TERMS FOR KSTP 12 AND KPER 1 TO BUDGET FILE TERMS FROM KSTP 1 AND KPER 1

 FMI SETTING HEAD FOR KSTP 12 AND KPER 1 TO BINARY FILE HEADS FROM KSTP 1 AND KPER 1

 SFR-1 SETTING BUDGET TERMS FOR KSTP 12 AND KPER 1 TO BUDGET FILE TERMS FROM KSTP 1 AND KPER 1

 SFT PACKAGE (SFR-1) FLOW RATES   PERIOD      1   STEP       12
 ----------------------------------------------------------------------------------------
   NUMBER   CELLID                    RATE       NAME                                    
 ----------------------------------------------------------------------------------------
     1      (1,1,169)             21.929568      SFTREACH1                               
     2      (1,1,170)             21.270432      SFTREACH2                               
     3      (1,1,171)             0.0000000      SFTREACH3                               
     4      (1,1,172)             0.0000000      SFTREACH4                               
     5      (1,1,173)             0.0000000      SFTREACH5                               
     6      (1,1,174)             0.0000000      SFTREACH6                               
     7      (1,1,175)             0.0000000      SFTREACH7                               
     8      (1,1,176)             0.0000000      SFTREACH8                               
     9      (1,1,177)             0.0000000      SFTREACH9                               
     10     (1,1,178)             0.0000000      SFTREACH10                              
     11     (1,1,179)             0.0000000      SFTREACH11                              
     12     (1,1,180)             0.0000000      SFTREACH12                              
     13     (1,1,181)             0.0000000      SFTREACH13                              
     14     (1,1,182)             0.0000000      SFTREACH14                              
     15     (1,1,183)             0.0000000      SFTREACH15                              
     16     (1,1,184)             0.0000000      SFTREACH16                              
     17     (1,1,185)             0.0000000      SFTREACH17                              
     18     (1,1,186)             0.0000000      SFTREACH18                              
     19     (1,1,187)             0.0000000      SFTREACH19                              
     20     (1,1,188)             0.0000000      SFTREACH20                              
     21     (1,1,189)             0.0000000      SFTREACH21                              
     22     (1,1,190)             0.0000000      SFTREACH22                              
     23     (1,1,191)             0.0000000      SFTREACH23                              
     24     (1,1,192)             0.0000000      SFTREACH24                              
 ----------------------------------------------------------------------------------------




 SFR-1 PACKAGE - SUMMARY OF FLOWS FOR EACH CONTROL VOLUME   PERIOD      1   STEP       12
 ----------------------------------------------------------------------------------------------------------------------------------------------------------------------
                                                                                                                                                             PERCENT   
   NUMBER      INFLOW      OUTFLOW        GWF        RAINFALL   EVAPORATION     RUNOFF     EXT INFLOW  EXT OUTFLOW    STORAGE      CONSTANT     IN - OUT    DIFFERENCE 
 ----------------------------------------------------------------------------------------------------------------------------------------------------------------------
     1       0.0000      -21.270      -21.930       0.0000       0.0000       0.0000       43.200       0.0000       0.0000       0.0000      -7.10543E-15 -1.64477E-14
     2       21.270       0.0000      -21.270       0.0000       0.0000       0.0000       0.0000       0.0000       0.0000       0.0000       3.55271E-15  1.67026E-14
     3       0.0000       0.0000       0.0000       0.0000       0.0000       0.0000       0.0000       0.0000       0.0000       0.0000       0.0000       0.0000     
     4       0.0000       0.0000       0.0000       0.0000       0.0000       0.0000       0.0000       0.0000       0.0000       0.0000       0.0000       0.0000     
     5       0.0000       0.0000       0.0000       0.0000       0.0000       0.0000       0.0000       0.0000       0.0000       0.0000       0.0000       0.0000     
     6       0.0000       0.0000       0.0000       0.0000       0.0000       0.0000       0.0000       0.0000       0.0000       0.0000       0.0000       0.0000     
     7       0.0000       0.0000       0.0000       0.0000       0.0000       0.0000       0.0000       0.0000       0.0000       0.0000       0.0000       0.0000     
     8       0.0000       0.0000       0.0000       0.0000       0.0000       0.0000       0.0000       0.0000       0.0000       0.0000       0.0000       0.0000     
     9       0.0000       0.0000       0.0000       0.0000       0.0000       0.0000       0.0000       0.0000       0.0000       0.0000       0.0000       0.0000     
     10      0.0000       0.0000       0.0000       0.0000       0.0000       0.0000       0.0000       0.0000       0.0000       0.0000       0.0000       0.0000     
     11      0.0000       0.0000       0.0000       0.0000       0.0000       0.0000       0.0000       0.0000       0.0000       0.0000       0.0000       0.0000     
     12      0.0000       0.0000       0.0000       0.0000       0.0000       0.0000       0.0000       0.0000       0.0000       0.0000       0.0000       0.0000     
     13      0.0000       0.0000       0.0000       0.0000       0.0000       0.0000       0.0000       0.0000       0.0000       0.0000       0.0000       0.0000     
     14      0.0000       0.0000       0.0000       0.0000       0.0000       0.0000       0.0000       0.0000       0.0000       0.0000       0.0000       0.0000     
     15      0.0000       0.0000       0.0000       0.0000       0.0000       0.0000       0.0000       0.0000       0.0000       0.0000       0.0000       0.0000     
     16      0.0000       0.0000       0.0000       0.0000       0.0000       0.0000       0.0000       0.0000       0.0000       0.0000       0.0000       0.0000     
     17      0.0000       0.0000       0.0000       0.0000       0.0000       0.0000       0.0000       0.0000       0.0000       0.0000       0.0000       0.0000     
     18      0.0000       0.0000       0.0000       0.0000       0.0000       0.0000       0.0000       0.0000       0.0000       0.0000       0.0000       0.0000     
     19      0.0000       0.0000       0.0000       0.0000       0.0000       0.0000       0.0000       0.0000       0.0000       0.0000       0.0000       0.0000     
     20      0.0000       0.0000       0.0000       0.0000       0.0000       0.0000       0.0000       0.0000       0.0000       0.0000       0.0000       0.0000     
     21      0.0000       0.0000       0.0000       0.0000       0.0000       0.0000       0.0000       0.0000       0.0000       0.0000       0.0000       0.0000     
     22      0.0000       0.0000       0.0000       0.0000       0.0000       0.0000       0.0000       0.0000       0.0000       0.0000       0.0000       0.0000     
     23      0.0000       0.0000       0.0000       0.0000       0.0000       0.0000       0.0000       0.0000       0.0000       0.0000       0.0000       0.0000     
     24      0.0000       0.0000       0.0000       0.0000       0.0000       0.0000       0.0000       0.0000       0.0000       0.0000       0.0000       0.0000     
 ----------------------------------------------------------------------------------------------------------------------------------------------------------------------




  SFR-1 BUDGET FOR ENTIRE MODEL AT END OF TIME STEP   12, STRESS PERIOD   1
  ------------------------------------------------------------------------------

     CUMULATIVE SFR-1      M       RATES FOR THIS TIME STEP      M/T
     ------------------                 ------------------------

           IN:                                      IN:
           ---                                      ---
                 GWF =           0.0000                   GWF =           0.0000
            RAINFALL =           0.0000              RAINFALL =           0.0000
         EVAPORATION =           0.0000           EVAPORATION =           0.0000
              RUNOFF =           0.0000                RUNOFF =           0.0000
          EXT-INFLOW =        5184.0000            EXT-INFLOW =          43.2000
         EXT-OUTFLOW =           0.0000           EXT-OUTFLOW =           0.0000
             STORAGE =           0.0000               STORAGE =           0.0000
            CONSTANT =           0.0000              CONSTANT =           0.0000

            TOTAL IN =        5184.0000              TOTAL IN =          43.2000

          OUT:                                     OUT:
          ----                                     ----
                 GWF =        5184.0000                   GWF =          43.2000
            RAINFALL =           0.0000              RAINFALL =           0.0000
         EVAPORATION =           0.0000           EVAPORATION =           0.0000
              RUNOFF =           0.0000                RUNOFF =           0.0000
          EXT-INFLOW =           0.0000            EXT-INFLOW =           0.0000
         EXT-OUTFLOW =           0.0000           EXT-OUTFLOW =           0.0000
             STORAGE =       2.7756E-16               STORAGE =           0.0000
            CONSTANT =           0.0000              CONSTANT =           0.0000

           TOTAL OUT =        5184.0000             TOTAL OUT =          43.2000

            IN - OUT =           0.0000              IN - OUT =           0.0000

 PERCENT DISCREPANCY =           0.00     PERCENT DISCREPANCY =           0.00



  MASS BUDGET FOR ENTIRE MODEL AT END OF TIME STEP   12, STRESS PERIOD   1
  ---------------------------------------------------------------------------------------------------

     CUMULATIVE MASS      M       RATES FOR THIS TIME STEP      M/T          PACKAGE NAME    
     ------------------                 ------------------------                     ----------------

           IN:                                      IN:
           ---                                      ---
     STORAGE-AQUEOUS =       5.1981E-17       STORAGE-AQUEOUS =       7.1160E-19     MST             
               RCH-1 =           0.0000                 RCH-1 =           0.0000     SSM             
               CHD-1 =           0.0000                 CHD-1 =           0.0000     SSM             
     FLOW-CORRECTION =       1.2023E-07       FLOW-CORRECTION =       1.0066E-09                     
                 SFT =        5184.0000                   SFT =          43.2000     SFR-1           

            TOTAL IN =        5184.0000              TOTAL IN =          43.2000

          OUT:                                     OUT:
          ----                                     ----
     STORAGE-AQUEOUS =        5184.0000       STORAGE-AQUEOUS =          43.2000     MST             
               RCH-1 =           0.0000                 RCH-1 =           0.0000     SSM             
               CHD-1 =       4.5441E-99                 CHD-1 =       4.2385-100     SSM             
     FLOW-CORRECTION =       1.0021E-05       FLOW-CORRECTION =       1.6319E-07                     
                 SFT =           0.0000                   SFT =           0.0000     SFR-1           

           TOTAL OUT =        5184.0000             TOTAL OUT =          43.2000

            IN - OUT =       1.7460E-06              IN - OUT =      -2.8365E-08

 PERCENT DISCREPANCY =           0.00     PERCENT DISCREPANCY =          -0.00




         TIME SUMMARY AT END OF TIME STEP   12 IN STRESS PERIOD    1
                    SECONDS     MINUTES      HOURS       DAYS        YEARS
                    -----------------------------------------------------------
   TIME STEP LENGTH 8.64000E+05  14400.      240.00      10.000     2.73785E-02
 STRESS PERIOD TIME 1.03680E+07 1.72800E+05  2880.0      120.00     0.32854    
         TOTAL TIME 1.03680E+07 1.72800E+05  2880.0      120.00     0.32854    


end timestep


start timestep kper="1" kstp="13" mode="normal"


 FMI SETTING BUDGET TERMS FOR KSTP 13 AND KPER 1 TO BUDGET FILE TERMS FROM KSTP 1 AND KPER 1

 FMI SETTING HEAD FOR KSTP 13 AND KPER 1 TO BINARY FILE HEADS FROM KSTP 1 AND KPER 1

 SFR-1 SETTING BUDGET TERMS FOR KSTP 13 AND KPER 1 TO BUDGET FILE TERMS FROM KSTP 1 AND KPER 1

 SFT PACKAGE (SFR-1) FLOW RATES   PERIOD      1   STEP       13
 ----------------------------------------------------------------------------------------
   NUMBER   CELLID                    RATE       NAME                                    
 ----------------------------------------------------------------------------------------
     1      (1,1,169)             21.929568      SFTREACH1                               
     2      (1,1,170)             21.270432      SFTREACH2                               
     3      (1,1,171)             0.0000000      SFTREACH3                               
     4      (1,1,172)             0.0000000      SFTREACH4                               
     5      (1,1,173)             0.0000000      SFTREACH5                               
     6      (1,1,174)             0.0000000      SFTREACH6                               
     7      (1,1,175)             0.0000000      SFTREACH7                               
     8      (1,1,176)             0.0000000      SFTREACH8                               
     9      (1,1,177)             0.0000000      SFTREACH9                               
     10     (1,1,178)             0.0000000      SFTREACH10                              
     11     (1,1,179)             0.0000000      SFTREACH11                              
     12     (1,1,180)             0.0000000      SFTREACH12                              
     13     (1,1,181)             0.0000000      SFTREACH13                              
     14     (1,1,182)             0.0000000      SFTREACH14                              
     15     (1,1,183)             0.0000000      SFTREACH15                              
     16     (1,1,184)             0.0000000      SFTREACH16                              
     17     (1,1,185)             0.0000000      SFTREACH17                              
     18     (1,1,186)             0.0000000      SFTREACH18                              
     19     (1,1,187)             0.0000000      SFTREACH19                              
     20     (1,1,188)             0.0000000      SFTREACH20                              
     21     (1,1,189)             0.0000000      SFTREACH21                              
     22     (1,1,190)             0.0000000      SFTREACH22                              
     23     (1,1,191)             0.0000000      SFTREACH23                              
     24     (1,1,192)             0.0000000      SFTREACH24                              
 ----------------------------------------------------------------------------------------




 SFR-1 PACKAGE - SUMMARY OF FLOWS FOR EACH CONTROL VOLUME   PERIOD      1   STEP       13
 ----------------------------------------------------------------------------------------------------------------------------------------------------------------------
                                                                                                                                                             PERCENT   
   NUMBER      INFLOW      OUTFLOW        GWF        RAINFALL   EVAPORATION     RUNOFF     EXT INFLOW  EXT OUTFLOW    STORAGE      CONSTANT     IN - OUT    DIFFERENCE 
 ----------------------------------------------------------------------------------------------------------------------------------------------------------------------
     1       0.0000      -21.270      -21.930       0.0000       0.0000       0.0000       43.200       0.0000       0.0000       0.0000      -7.10543E-15 -1.64477E-14
     2       21.270       0.0000      -21.270       0.0000       0.0000       0.0000       0.0000       0.0000       0.0000       0.0000       3.55271E-15  1.67026E-14
     3       0.0000       0.0000       0.0000       0.0000       0.0000       0.0000       0.0000       0.0000       0.0000       0.0000       0.0000       0.0000     
     4       0.0000       0.0000       0.0000       0.0000       0.0000       0.0000       0.0000       0.0000       0.0000       0.0000       0.0000       0.0000     
     5       0.0000       0.0000       0.0000       0.0000       0.0000       0.0000       0.0000       0.0000       0.0000       0.0000       0.0000       0.0000     
     6       0.0000       0.0000       0.0000       0.0000       0.0000       0.0000       0.0000       0.0000       0.0000       0.0000       0.0000       0.0000     
     7       0.0000       0.0000       0.0000       0.0000       0.0000       0.0000       0.0000       0.0000       0.0000       0.0000       0.0000       0.0000     
     8       0.0000       0.0000       0.0000       0.0000       0.0000       0.0000       0.0000       0.0000       0.0000       0.0000       0.0000       0.0000     
     9       0.0000       0.0000       0.0000       0.0000       0.0000       0.0000       0.0000       0.0000       0.0000       0.0000       0.0000       0.0000     
     10      0.0000       0.0000       0.0000       0.0000       0.0000       0.0000       0.0000       0.0000       0.0000       0.0000       0.0000       0.0000     
     11      0.0000       0.0000       0.0000       0.0000       0.0000       0.0000       0.0000       0.0000       0.0000       0.0000       0.0000       0.0000     
     12      0.0000       0.0000       0.0000       0.0000       0.0000       0.0000       0.0000       0.0000       0.0000       0.0000       0.0000       0.0000     
     13      0.0000       0.0000       0.0000       0.0000       0.0000       0.0000       0.0000       0.0000       0.0000       0.0000       0.0000       0.0000     
     14      0.0000       0.0000       0.0000       0.0000       0.0000       0.0000       0.0000       0.0000       0.0000       0.0000       0.0000       0.0000     
     15      0.0000       0.0000       0.0000       0.0000       0.0000       0.0000       0.0000       0.0000       0.0000       0.0000       0.0000       0.0000     
     16      0.0000       0.0000       0.0000       0.0000       0.0000       0.0000       0.0000       0.0000       0.0000       0.0000       0.0000       0.0000     
     17      0.0000       0.0000       0.0000       0.0000       0.0000       0.0000       0.0000       0.0000       0.0000       0.0000       0.0000       0.0000     
     18      0.0000       0.0000       0.0000       0.0000       0.0000       0.0000       0.0000       0.0000       0.0000       0.0000       0.0000       0.0000     
     19      0.0000       0.0000       0.0000       0.0000       0.0000       0.0000       0.0000       0.0000       0.0000       0.0000       0.0000       0.0000     
     20      0.0000       0.0000       0.0000       0.0000       0.0000       0.0000       0.0000       0.0000       0.0000       0.0000       0.0000       0.0000     
     21      0.0000       0.0000       0.0000       0.0000       0.0000       0.0000       0.0000       0.0000       0.0000       0.0000       0.0000       0.0000     
     22      0.0000       0.0000       0.0000       0.0000       0.0000       0.0000       0.0000       0.0000       0.0000       0.0000       0.0000       0.0000     
     23      0.0000       0.0000       0.0000       0.0000       0.0000       0.0000       0.0000       0.0000       0.0000       0.0000       0.0000       0.0000     
     24      0.0000       0.0000       0.0000       0.0000       0.0000       0.0000       0.0000       0.0000       0.0000       0.0000       0.0000       0.0000     
 ----------------------------------------------------------------------------------------------------------------------------------------------------------------------




  SFR-1 BUDGET FOR ENTIRE MODEL AT END OF TIME STEP   13, STRESS PERIOD   1
  ------------------------------------------------------------------------------

     CUMULATIVE SFR-1      M       RATES FOR THIS TIME STEP      M/T
     ------------------                 ------------------------

           IN:                                      IN:
           ---                                      ---
                 GWF =           0.0000                   GWF =           0.0000
            RAINFALL =           0.0000              RAINFALL =           0.0000
         EVAPORATION =           0.0000           EVAPORATION =           0.0000
              RUNOFF =           0.0000                RUNOFF =           0.0000
          EXT-INFLOW =        5616.0000            EXT-INFLOW =          43.2000
         EXT-OUTFLOW =           0.0000           EXT-OUTFLOW =           0.0000
             STORAGE =           0.0000               STORAGE =           0.0000
            CONSTANT =           0.0000              CONSTANT =           0.0000

            TOTAL IN =        5616.0000              TOTAL IN =          43.2000

          OUT:                                     OUT:
          ----                                     ----
                 GWF =        5616.0000                   GWF =          43.2000
            RAINFALL =           0.0000              RAINFALL =           0.0000
         EVAPORATION =           0.0000           EVAPORATION =           0.0000
              RUNOFF =           0.0000                RUNOFF =           0.0000
          EXT-INFLOW =           0.0000            EXT-INFLOW =           0.0000
         EXT-OUTFLOW =           0.0000           EXT-OUTFLOW =           0.0000
             STORAGE =       2.7756E-16               STORAGE =           0.0000
            CONSTANT =           0.0000              CONSTANT =           0.0000

           TOTAL OUT =        5616.0000             TOTAL OUT =          43.2000

            IN - OUT =           0.0000              IN - OUT =           0.0000

 PERCENT DISCREPANCY =           0.00     PERCENT DISCREPANCY =           0.00



  MASS BUDGET FOR ENTIRE MODEL AT END OF TIME STEP   13, STRESS PERIOD   1
  ---------------------------------------------------------------------------------------------------

     CUMULATIVE MASS      M       RATES FOR THIS TIME STEP      M/T          PACKAGE NAME    
     ------------------                 ------------------------                     ----------------

           IN:                                      IN:
           ---                                      ---
     STORAGE-AQUEOUS =       5.9097E-17       STORAGE-AQUEOUS =       7.1160E-19     MST             
               RCH-1 =           0.0000                 RCH-1 =           0.0000     SSM             
               CHD-1 =           0.0000                 CHD-1 =           0.0000     SSM             
     FLOW-CORRECTION =       1.3031E-07       FLOW-CORRECTION =       1.0073E-09                     
                 SFT =        5616.0000                   SFT =          43.2000     SFR-1           

            TOTAL IN =        5616.0000              TOTAL IN =          43.2000

          OUT:                                     OUT:
          ----                                     ----
     STORAGE-AQUEOUS =        5616.0000       STORAGE-AQUEOUS =          43.2000     MST             
               RCH-1 =           0.0000                 RCH-1 =           0.0000     SSM             
               CHD-1 =       6.2195E-98                 CHD-1 =       5.7651E-99     SSM             
     FLOW-CORRECTION =       1.1798E-05       FLOW-CORRECTION =       1.7768E-07                     
                 SFT =           0.0000                   SFT =           0.0000     SFR-1           

           TOTAL OUT =        5616.0000             TOTAL OUT =          43.2000

            IN - OUT =       2.1112E-06              IN - OUT =       3.6520E-08

 PERCENT DISCREPANCY =           0.00     PERCENT DISCREPANCY =           0.00




         TIME SUMMARY AT END OF TIME STEP   13 IN STRESS PERIOD    1
                    SECONDS     MINUTES      HOURS       DAYS        YEARS
                    -----------------------------------------------------------
   TIME STEP LENGTH 8.64000E+05  14400.      240.00      10.000     2.73785E-02
 STRESS PERIOD TIME 1.12320E+07 1.87200E+05  3120.0      130.00     0.35592    
         TOTAL TIME 1.12320E+07 1.87200E+05  3120.0      130.00     0.35592    


end timestep


start timestep kper="1" kstp="14" mode="normal"


 FMI SETTING BUDGET TERMS FOR KSTP 14 AND KPER 1 TO BUDGET FILE TERMS FROM KSTP 1 AND KPER 1

 FMI SETTING HEAD FOR KSTP 14 AND KPER 1 TO BINARY FILE HEADS FROM KSTP 1 AND KPER 1

 SFR-1 SETTING BUDGET TERMS FOR KSTP 14 AND KPER 1 TO BUDGET FILE TERMS FROM KSTP 1 AND KPER 1

 SFT PACKAGE (SFR-1) FLOW RATES   PERIOD      1   STEP       14
 ----------------------------------------------------------------------------------------
   NUMBER   CELLID                    RATE       NAME                                    
 ----------------------------------------------------------------------------------------
     1      (1,1,169)             21.929568      SFTREACH1                               
     2      (1,1,170)             21.270432      SFTREACH2                               
     3      (1,1,171)             0.0000000      SFTREACH3                               
     4      (1,1,172)             0.0000000      SFTREACH4                               
     5      (1,1,173)             0.0000000      SFTREACH5                               
     6      (1,1,174)             0.0000000      SFTREACH6                               
     7      (1,1,175)             0.0000000      SFTREACH7                               
     8      (1,1,176)             0.0000000      SFTREACH8                               
     9      (1,1,177)             0.0000000      SFTREACH9                               
     10     (1,1,178)             0.0000000      SFTREACH10                              
     11     (1,1,179)             0.0000000      SFTREACH11                              
     12     (1,1,180)             0.0000000      SFTREACH12                              
     13     (1,1,181)             0.0000000      SFTREACH13                              
     14     (1,1,182)             0.0000000      SFTREACH14                              
     15     (1,1,183)             0.0000000      SFTREACH15                              
     16     (1,1,184)             0.0000000      SFTREACH16                              
     17     (1,1,185)             0.0000000      SFTREACH17                              
     18     (1,1,186)             0.0000000      SFTREACH18                              
     19     (1,1,187)             0.0000000      SFTREACH19                              
     20     (1,1,188)             0.0000000      SFTREACH20                              
     21     (1,1,189)             0.0000000      SFTREACH21                              
     22     (1,1,190)             0.0000000      SFTREACH22                              
     23     (1,1,191)             0.0000000      SFTREACH23                              
     24     (1,1,192)             0.0000000      SFTREACH24                              
 ----------------------------------------------------------------------------------------




 SFR-1 PACKAGE - SUMMARY OF FLOWS FOR EACH CONTROL VOLUME   PERIOD      1   STEP       14
 ----------------------------------------------------------------------------------------------------------------------------------------------------------------------
                                                                                                                                                             PERCENT   
   NUMBER      INFLOW      OUTFLOW        GWF        RAINFALL   EVAPORATION     RUNOFF     EXT INFLOW  EXT OUTFLOW    STORAGE      CONSTANT     IN - OUT    DIFFERENCE 
 ----------------------------------------------------------------------------------------------------------------------------------------------------------------------
     1       0.0000      -21.270      -21.930       0.0000       0.0000       0.0000       43.200       0.0000       0.0000       0.0000      -7.10543E-15 -1.64477E-14
     2       21.270       0.0000      -21.270       0.0000       0.0000       0.0000       0.0000       0.0000       0.0000       0.0000       3.55271E-15  1.67026E-14
     3       0.0000       0.0000       0.0000       0.0000       0.0000       0.0000       0.0000       0.0000       0.0000       0.0000       0.0000       0.0000     
     4       0.0000       0.0000       0.0000       0.0000       0.0000       0.0000       0.0000       0.0000       0.0000       0.0000       0.0000       0.0000     
     5       0.0000       0.0000       0.0000       0.0000       0.0000       0.0000       0.0000       0.0000       0.0000       0.0000       0.0000       0.0000     
     6       0.0000       0.0000       0.0000       0.0000       0.0000       0.0000       0.0000       0.0000       0.0000       0.0000       0.0000       0.0000     
     7       0.0000       0.0000       0.0000       0.0000       0.0000       0.0000       0.0000       0.0000       0.0000       0.0000       0.0000       0.0000     
     8       0.0000       0.0000       0.0000       0.0000       0.0000       0.0000       0.0000       0.0000       0.0000       0.0000       0.0000       0.0000     
     9       0.0000       0.0000       0.0000       0.0000       0.0000       0.0000       0.0000       0.0000       0.0000       0.0000       0.0000       0.0000     
     10      0.0000       0.0000       0.0000       0.0000       0.0000       0.0000       0.0000       0.0000       0.0000       0.0000       0.0000       0.0000     
     11      0.0000       0.0000       0.0000       0.0000       0.0000       0.0000       0.0000       0.0000       0.0000       0.0000       0.0000       0.0000     
     12      0.0000       0.0000       0.0000       0.0000       0.0000       0.0000       0.0000       0.0000       0.0000       0.0000       0.0000       0.0000     
     13      0.0000       0.0000       0.0000       0.0000       0.0000       0.0000       0.0000       0.0000       0.0000       0.0000       0.0000       0.0000     
     14      0.0000       0.0000       0.0000       0.0000       0.0000       0.0000       0.0000       0.0000       0.0000       0.0000       0.0000       0.0000     
     15      0.0000       0.0000       0.0000       0.0000       0.0000       0.0000       0.0000       0.0000       0.0000       0.0000       0.0000       0.0000     
     16      0.0000       0.0000       0.0000       0.0000       0.0000       0.0000       0.0000       0.0000       0.0000       0.0000       0.0000       0.0000     
     17      0.0000       0.0000       0.0000       0.0000       0.0000       0.0000       0.0000       0.0000       0.0000       0.0000       0.0000       0.0000     
     18      0.0000       0.0000       0.0000       0.0000       0.0000       0.0000       0.0000       0.0000       0.0000       0.0000       0.0000       0.0000     
     19      0.0000       0.0000       0.0000       0.0000       0.0000       0.0000       0.0000       0.0000       0.0000       0.0000       0.0000       0.0000     
     20      0.0000       0.0000       0.0000       0.0000       0.0000       0.0000       0.0000       0.0000       0.0000       0.0000       0.0000       0.0000     
     21      0.0000       0.0000       0.0000       0.0000       0.0000       0.0000       0.0000       0.0000       0.0000       0.0000       0.0000       0.0000     
     22      0.0000       0.0000       0.0000       0.0000       0.0000       0.0000       0.0000       0.0000       0.0000       0.0000       0.0000       0.0000     
     23      0.0000       0.0000       0.0000       0.0000       0.0000       0.0000       0.0000       0.0000       0.0000       0.0000       0.0000       0.0000     
     24      0.0000       0.0000       0.0000       0.0000       0.0000       0.0000       0.0000       0.0000       0.0000       0.0000       0.0000       0.0000     
 ----------------------------------------------------------------------------------------------------------------------------------------------------------------------




  SFR-1 BUDGET FOR ENTIRE MODEL AT END OF TIME STEP   14, STRESS PERIOD   1
  ------------------------------------------------------------------------------

     CUMULATIVE SFR-1      M       RATES FOR THIS TIME STEP      M/T
     ------------------                 ------------------------

           IN:                                      IN:
           ---                                      ---
                 GWF =           0.0000                   GWF =           0.0000
            RAINFALL =           0.0000              RAINFALL =           0.0000
         EVAPORATION =           0.0000           EVAPORATION =           0.0000
              RUNOFF =           0.0000                RUNOFF =           0.0000
          EXT-INFLOW =        6048.0000            EXT-INFLOW =          43.2000
         EXT-OUTFLOW =           0.0000           EXT-OUTFLOW =           0.0000
             STORAGE =           0.0000               STORAGE =           0.0000
            CONSTANT =           0.0000              CONSTANT =           0.0000

            TOTAL IN =        6048.0000              TOTAL IN =          43.2000

          OUT:                                     OUT:
          ----                                     ----
                 GWF =        6048.0000                   GWF =          43.2000
            RAINFALL =           0.0000              RAINFALL =           0.0000
         EVAPORATION =           0.0000           EVAPORATION =           0.0000
              RUNOFF =           0.0000                RUNOFF =           0.0000
          EXT-INFLOW =           0.0000            EXT-INFLOW =           0.0000
         EXT-OUTFLOW =           0.0000           EXT-OUTFLOW =           0.0000
             STORAGE =       2.7756E-16               STORAGE =           0.0000
            CONSTANT =           0.0000              CONSTANT =           0.0000

           TOTAL OUT =        6048.0000             TOTAL OUT =          43.2000

            IN - OUT =           0.0000              IN - OUT =           0.0000

 PERCENT DISCREPANCY =           0.00     PERCENT DISCREPANCY =           0.00



  MASS BUDGET FOR ENTIRE MODEL AT END OF TIME STEP   14, STRESS PERIOD   1
  ---------------------------------------------------------------------------------------------------

     CUMULATIVE MASS      M       RATES FOR THIS TIME STEP      M/T          PACKAGE NAME    
     ------------------                 ------------------------                     ----------------

           IN:                                      IN:
           ---                                      ---
     STORAGE-AQUEOUS =       1.1764E-15       STORAGE-AQUEOUS =       1.1173E-16     MST             
               RCH-1 =           0.0000                 RCH-1 =           0.0000     SSM             
               CHD-1 =           0.0000                 CHD-1 =           0.0000     SSM             
     FLOW-CORRECTION =       1.4039E-07       FLOW-CORRECTION =       1.0081E-09                     
                 SFT =        6048.0000                   SFT =          43.2000     SFR-1           

            TOTAL IN =        6048.0000              TOTAL IN =          43.2000

          OUT:                                     OUT:
          ----                                     ----
     STORAGE-AQUEOUS =        6048.0000       STORAGE-AQUEOUS =          43.2000     MST             
               RCH-1 =           0.0000                 RCH-1 =           0.0000     SSM             
               CHD-1 =       7.8906E-97                 CHD-1 =       7.2686E-98     SSM             
     FLOW-CORRECTION =       1.3721E-05       FLOW-CORRECTION =       1.9226E-07                     
                 SFT =           0.0000                   SFT =           0.0000     SFR-1           

           TOTAL OUT =        6048.0000             TOTAL OUT =          43.2000

            IN - OUT =       2.4374E-06              IN - OUT =       3.2624E-08

 PERCENT DISCREPANCY =           0.00     PERCENT DISCREPANCY =           0.00




         TIME SUMMARY AT END OF TIME STEP   14 IN STRESS PERIOD    1
                    SECONDS     MINUTES      HOURS       DAYS        YEARS
                    -----------------------------------------------------------
   TIME STEP LENGTH 8.64000E+05  14400.      240.00      10.000     2.73785E-02
 STRESS PERIOD TIME 1.20960E+07 2.01600E+05  3360.0      140.00     0.38330    
         TOTAL TIME 1.20960E+07 2.01600E+05  3360.0      140.00     0.38330    


end timestep


start timestep kper="1" kstp="15" mode="normal"


 FMI SETTING BUDGET TERMS FOR KSTP 15 AND KPER 1 TO BUDGET FILE TERMS FROM KSTP 1 AND KPER 1

 FMI SETTING HEAD FOR KSTP 15 AND KPER 1 TO BINARY FILE HEADS FROM KSTP 1 AND KPER 1

 SFR-1 SETTING BUDGET TERMS FOR KSTP 15 AND KPER 1 TO BUDGET FILE TERMS FROM KSTP 1 AND KPER 1

 SFT PACKAGE (SFR-1) FLOW RATES   PERIOD      1   STEP       15
 ----------------------------------------------------------------------------------------
   NUMBER   CELLID                    RATE       NAME                                    
 ----------------------------------------------------------------------------------------
     1      (1,1,169)             21.929568      SFTREACH1                               
     2      (1,1,170)             21.270432      SFTREACH2                               
     3      (1,1,171)             0.0000000      SFTREACH3                               
     4      (1,1,172)             0.0000000      SFTREACH4                               
     5      (1,1,173)             0.0000000      SFTREACH5                               
     6      (1,1,174)             0.0000000      SFTREACH6                               
     7      (1,1,175)             0.0000000      SFTREACH7                               
     8      (1,1,176)             0.0000000      SFTREACH8                               
     9      (1,1,177)             0.0000000      SFTREACH9                               
     10     (1,1,178)             0.0000000      SFTREACH10                              
     11     (1,1,179)             0.0000000      SFTREACH11                              
     12     (1,1,180)             0.0000000      SFTREACH12                              
     13     (1,1,181)             0.0000000      SFTREACH13                              
     14     (1,1,182)             0.0000000      SFTREACH14                              
     15     (1,1,183)             0.0000000      SFTREACH15                              
     16     (1,1,184)             0.0000000      SFTREACH16                              
     17     (1,1,185)             0.0000000      SFTREACH17                              
     18     (1,1,186)             0.0000000      SFTREACH18                              
     19     (1,1,187)             0.0000000      SFTREACH19                              
     20     (1,1,188)             0.0000000      SFTREACH20                              
     21     (1,1,189)             0.0000000      SFTREACH21                              
     22     (1,1,190)             0.0000000      SFTREACH22                              
     23     (1,1,191)             0.0000000      SFTREACH23                              
     24     (1,1,192)             0.0000000      SFTREACH24                              
 ----------------------------------------------------------------------------------------




 SFR-1 PACKAGE - SUMMARY OF FLOWS FOR EACH CONTROL VOLUME   PERIOD      1   STEP       15
 ----------------------------------------------------------------------------------------------------------------------------------------------------------------------
                                                                                                                                                             PERCENT   
   NUMBER      INFLOW      OUTFLOW        GWF        RAINFALL   EVAPORATION     RUNOFF     EXT INFLOW  EXT OUTFLOW    STORAGE      CONSTANT     IN - OUT    DIFFERENCE 
 ----------------------------------------------------------------------------------------------------------------------------------------------------------------------
     1       0.0000      -21.270      -21.930       0.0000       0.0000       0.0000       43.200       0.0000       0.0000       0.0000      -7.10543E-15 -1.64477E-14
     2       21.270       0.0000      -21.270       0.0000       0.0000       0.0000       0.0000       0.0000       0.0000       0.0000       3.55271E-15  1.67026E-14
     3       0.0000       0.0000       0.0000       0.0000       0.0000       0.0000       0.0000       0.0000       0.0000       0.0000       0.0000       0.0000     
     4       0.0000       0.0000       0.0000       0.0000       0.0000       0.0000       0.0000       0.0000       0.0000       0.0000       0.0000       0.0000     
     5       0.0000       0.0000       0.0000       0.0000       0.0000       0.0000       0.0000       0.0000       0.0000       0.0000       0.0000       0.0000     
     6       0.0000       0.0000       0.0000       0.0000       0.0000       0.0000       0.0000       0.0000       0.0000       0.0000       0.0000       0.0000     
     7       0.0000       0.0000       0.0000       0.0000       0.0000       0.0000       0.0000       0.0000       0.0000       0.0000       0.0000       0.0000     
     8       0.0000       0.0000       0.0000       0.0000       0.0000       0.0000       0.0000       0.0000       0.0000       0.0000       0.0000       0.0000     
     9       0.0000       0.0000       0.0000       0.0000       0.0000       0.0000       0.0000       0.0000       0.0000       0.0000       0.0000       0.0000     
     10      0.0000       0.0000       0.0000       0.0000       0.0000       0.0000       0.0000       0.0000       0.0000       0.0000       0.0000       0.0000     
     11      0.0000       0.0000       0.0000       0.0000       0.0000       0.0000       0.0000       0.0000       0.0000       0.0000       0.0000       0.0000     
     12      0.0000       0.0000       0.0000       0.0000       0.0000       0.0000       0.0000       0.0000       0.0000       0.0000       0.0000       0.0000     
     13      0.0000       0.0000       0.0000       0.0000       0.0000       0.0000       0.0000       0.0000       0.0000       0.0000       0.0000       0.0000     
     14      0.0000       0.0000       0.0000       0.0000       0.0000       0.0000       0.0000       0.0000       0.0000       0.0000       0.0000       0.0000     
     15      0.0000       0.0000       0.0000       0.0000       0.0000       0.0000       0.0000       0.0000       0.0000       0.0000       0.0000       0.0000     
     16      0.0000       0.0000       0.0000       0.0000       0.0000       0.0000       0.0000       0.0000       0.0000       0.0000       0.0000       0.0000     
     17      0.0000       0.0000       0.0000       0.0000       0.0000       0.0000       0.0000       0.0000       0.0000       0.0000       0.0000       0.0000     
     18      0.0000       0.0000       0.0000       0.0000       0.0000       0.0000       0.0000       0.0000       0.0000       0.0000       0.0000       0.0000     
     19      0.0000       0.0000       0.0000       0.0000       0.0000       0.0000       0.0000       0.0000       0.0000       0.0000       0.0000       0.0000     
     20      0.0000       0.0000       0.0000       0.0000       0.0000       0.0000       0.0000       0.0000       0.0000       0.0000       0.0000       0.0000     
     21      0.0000       0.0000       0.0000       0.0000       0.0000       0.0000       0.0000       0.0000       0.0000       0.0000       0.0000       0.0000     
     22      0.0000       0.0000       0.0000       0.0000       0.0000       0.0000       0.0000       0.0000       0.0000       0.0000       0.0000       0.0000     
     23      0.0000       0.0000       0.0000       0.0000       0.0000       0.0000       0.0000       0.0000       0.0000       0.0000       0.0000       0.0000     
     24      0.0000       0.0000       0.0000       0.0000       0.0000       0.0000       0.0000       0.0000       0.0000       0.0000       0.0000       0.0000     
 ----------------------------------------------------------------------------------------------------------------------------------------------------------------------




  SFR-1 BUDGET FOR ENTIRE MODEL AT END OF TIME STEP   15, STRESS PERIOD   1
  ------------------------------------------------------------------------------

     CUMULATIVE SFR-1      M       RATES FOR THIS TIME STEP      M/T
     ------------------                 ------------------------

           IN:                                      IN:
           ---                                      ---
                 GWF =           0.0000                   GWF =           0.0000
            RAINFALL =           0.0000              RAINFALL =           0.0000
         EVAPORATION =           0.0000           EVAPORATION =           0.0000
              RUNOFF =           0.0000                RUNOFF =           0.0000
          EXT-INFLOW =        6480.0000            EXT-INFLOW =          43.2000
         EXT-OUTFLOW =           0.0000           EXT-OUTFLOW =           0.0000
             STORAGE =           0.0000               STORAGE =           0.0000
            CONSTANT =           0.0000              CONSTANT =           0.0000

            TOTAL IN =        6480.0000              TOTAL IN =          43.2000

          OUT:                                     OUT:
          ----                                     ----
                 GWF =        6480.0000                   GWF =          43.2000
            RAINFALL =           0.0000              RAINFALL =           0.0000
         EVAPORATION =           0.0000           EVAPORATION =           0.0000
              RUNOFF =           0.0000                RUNOFF =           0.0000
          EXT-INFLOW =           0.0000            EXT-INFLOW =           0.0000
         EXT-OUTFLOW =           0.0000           EXT-OUTFLOW =           0.0000
             STORAGE =       2.7756E-16               STORAGE =           0.0000
            CONSTANT =           0.0000              CONSTANT =           0.0000

           TOTAL OUT =        6480.0000             TOTAL OUT =          43.2000

            IN - OUT =           0.0000              IN - OUT =           0.0000

 PERCENT DISCREPANCY =           0.00     PERCENT DISCREPANCY =           0.00



  MASS BUDGET FOR ENTIRE MODEL AT END OF TIME STEP   15, STRESS PERIOD   1
  ---------------------------------------------------------------------------------------------------

     CUMULATIVE MASS      M       RATES FOR THIS TIME STEP      M/T          PACKAGE NAME    
     ------------------                 ------------------------                     ----------------

           IN:                                      IN:
           ---                                      ---
     STORAGE-AQUEOUS =       2.2938E-15       STORAGE-AQUEOUS =       1.1173E-16     MST             
               RCH-1 =           0.0000                 RCH-1 =           0.0000     SSM             
               CHD-1 =           0.0000                 CHD-1 =           0.0000     SSM             
     FLOW-CORRECTION =       1.5048E-07       FLOW-CORRECTION =       1.0092E-09                     
                 SFT =        6480.0000                   SFT =          43.2000     SFR-1           

            TOTAL IN =        6480.0000              TOTAL IN =          43.2000

          OUT:                                     OUT:
          ----                                     ----
     STORAGE-AQUEOUS =        6480.0000       STORAGE-AQUEOUS =          43.2000     MST             
               RCH-1 =           0.0000                 RCH-1 =           0.0000     SSM             
               CHD-1 =       9.3347E-96                 CHD-1 =       8.5456E-97     SSM             
     FLOW-CORRECTION =       1.5790E-05       FLOW-CORRECTION =       2.0695E-07                     
                 SFT =           0.0000                   SFT =           0.0000     SFR-1           

           TOTAL OUT =        6480.0000             TOTAL OUT =          43.2000

            IN - OUT =       2.7323E-06              IN - OUT =       2.9485E-08

 PERCENT DISCREPANCY =           0.00     PERCENT DISCREPANCY =           0.00




         TIME SUMMARY AT END OF TIME STEP   15 IN STRESS PERIOD    1
                    SECONDS     MINUTES      HOURS       DAYS        YEARS
                    -----------------------------------------------------------
   TIME STEP LENGTH 8.64000E+05  14400.      240.00      10.000     2.73785E-02
 STRESS PERIOD TIME 1.29600E+07 2.16000E+05  3600.0      150.00     0.41068    
         TOTAL TIME 1.29600E+07 2.16000E+05  3600.0      150.00     0.41068    


end timestep


start timestep kper="1" kstp="16" mode="normal"


 FMI SETTING BUDGET TERMS FOR KSTP 16 AND KPER 1 TO BUDGET FILE TERMS FROM KSTP 1 AND KPER 1

 FMI SETTING HEAD FOR KSTP 16 AND KPER 1 TO BINARY FILE HEADS FROM KSTP 1 AND KPER 1

 SFR-1 SETTING BUDGET TERMS FOR KSTP 16 AND KPER 1 TO BUDGET FILE TERMS FROM KSTP 1 AND KPER 1

 SFT PACKAGE (SFR-1) FLOW RATES   PERIOD      1   STEP       16
 ----------------------------------------------------------------------------------------
   NUMBER   CELLID                    RATE       NAME                                    
 ----------------------------------------------------------------------------------------
     1      (1,1,169)             21.929568      SFTREACH1                               
     2      (1,1,170)             21.270432      SFTREACH2                               
     3      (1,1,171)             0.0000000      SFTREACH3                               
     4      (1,1,172)             0.0000000      SFTREACH4                               
     5      (1,1,173)             0.0000000      SFTREACH5                               
     6      (1,1,174)             0.0000000      SFTREACH6                               
     7      (1,1,175)             0.0000000      SFTREACH7                               
     8      (1,1,176)             0.0000000      SFTREACH8                               
     9      (1,1,177)             0.0000000      SFTREACH9                               
     10     (1,1,178)             0.0000000      SFTREACH10                              
     11     (1,1,179)             0.0000000      SFTREACH11                              
     12     (1,1,180)             0.0000000      SFTREACH12                              
     13     (1,1,181)             0.0000000      SFTREACH13                              
     14     (1,1,182)             0.0000000      SFTREACH14                              
     15     (1,1,183)             0.0000000      SFTREACH15                              
     16     (1,1,184)             0.0000000      SFTREACH16                              
     17     (1,1,185)             0.0000000      SFTREACH17                              
     18     (1,1,186)             0.0000000      SFTREACH18                              
     19     (1,1,187)             0.0000000      SFTREACH19                              
     20     (1,1,188)             0.0000000      SFTREACH20                              
     21     (1,1,189)             0.0000000      SFTREACH21                              
     22     (1,1,190)             0.0000000      SFTREACH22                              
     23     (1,1,191)             0.0000000      SFTREACH23                              
     24     (1,1,192)             0.0000000      SFTREACH24                              
 ----------------------------------------------------------------------------------------




 SFR-1 PACKAGE - SUMMARY OF FLOWS FOR EACH CONTROL VOLUME   PERIOD      1   STEP       16
 ----------------------------------------------------------------------------------------------------------------------------------------------------------------------
                                                                                                                                                             PERCENT   
   NUMBER      INFLOW      OUTFLOW        GWF        RAINFALL   EVAPORATION     RUNOFF     EXT INFLOW  EXT OUTFLOW    STORAGE      CONSTANT     IN - OUT    DIFFERENCE 
 ----------------------------------------------------------------------------------------------------------------------------------------------------------------------
     1       0.0000      -21.270      -21.930       0.0000       0.0000       0.0000       43.200       0.0000       0.0000       0.0000      -7.10543E-15 -1.64477E-14
     2       21.270       0.0000      -21.270       0.0000       0.0000       0.0000       0.0000       0.0000       0.0000       0.0000       3.55271E-15  1.67026E-14
     3       0.0000       0.0000       0.0000       0.0000       0.0000       0.0000       0.0000       0.0000       0.0000       0.0000       0.0000       0.0000     
     4       0.0000       0.0000       0.0000       0.0000       0.0000       0.0000       0.0000       0.0000       0.0000       0.0000       0.0000       0.0000     
     5       0.0000       0.0000       0.0000       0.0000       0.0000       0.0000       0.0000       0.0000       0.0000       0.0000       0.0000       0.0000     
     6       0.0000       0.0000       0.0000       0.0000       0.0000       0.0000       0.0000       0.0000       0.0000       0.0000       0.0000       0.0000     
     7       0.0000       0.0000       0.0000       0.0000       0.0000       0.0000       0.0000       0.0000       0.0000       0.0000       0.0000       0.0000     
     8       0.0000       0.0000       0.0000       0.0000       0.0000       0.0000       0.0000       0.0000       0.0000       0.0000       0.0000       0.0000     
     9       0.0000       0.0000       0.0000       0.0000       0.0000       0.0000       0.0000       0.0000       0.0000       0.0000       0.0000       0.0000     
     10      0.0000       0.0000       0.0000       0.0000       0.0000       0.0000       0.0000       0.0000       0.0000       0.0000       0.0000       0.0000     
     11      0.0000       0.0000       0.0000       0.0000       0.0000       0.0000       0.0000       0.0000       0.0000       0.0000       0.0000       0.0000     
     12      0.0000       0.0000       0.0000       0.0000       0.0000       0.0000       0.0000       0.0000       0.0000       0.0000       0.0000       0.0000     
     13      0.0000       0.0000       0.0000       0.0000       0.0000       0.0000       0.0000       0.0000       0.0000       0.0000       0.0000       0.0000     
     14      0.0000       0.0000       0.0000       0.0000       0.0000       0.0000       0.0000       0.0000       0.0000       0.0000       0.0000       0.0000     
     15      0.0000       0.0000       0.0000       0.0000       0.0000       0.0000       0.0000       0.0000       0.0000       0.0000       0.0000       0.0000     
     16      0.0000       0.0000       0.0000       0.0000       0.0000       0.0000       0.0000       0.0000       0.0000       0.0000       0.0000       0.0000     
     17      0.0000       0.0000       0.0000       0.0000       0.0000       0.0000       0.0000       0.0000       0.0000       0.0000       0.0000       0.0000     
     18      0.0000       0.0000       0.0000       0.0000       0.0000       0.0000       0.0000       0.0000       0.0000       0.0000       0.0000       0.0000     
     19      0.0000       0.0000       0.0000       0.0000       0.0000       0.0000       0.0000       0.0000       0.0000       0.0000       0.0000       0.0000     
     20      0.0000       0.0000       0.0000       0.0000       0.0000       0.0000       0.0000       0.0000       0.0000       0.0000       0.0000       0.0000     
     21      0.0000       0.0000       0.0000       0.0000       0.0000       0.0000       0.0000       0.0000       0.0000       0.0000       0.0000       0.0000     
     22      0.0000       0.0000       0.0000       0.0000       0.0000       0.0000       0.0000       0.0000       0.0000       0.0000       0.0000       0.0000     
     23      0.0000       0.0000       0.0000       0.0000       0.0000       0.0000       0.0000       0.0000       0.0000       0.0000       0.0000       0.0000     
     24      0.0000       0.0000       0.0000       0.0000       0.0000       0.0000       0.0000       0.0000       0.0000       0.0000       0.0000       0.0000     
 ----------------------------------------------------------------------------------------------------------------------------------------------------------------------




  SFR-1 BUDGET FOR ENTIRE MODEL AT END OF TIME STEP   16, STRESS PERIOD   1
  ------------------------------------------------------------------------------

     CUMULATIVE SFR-1      M       RATES FOR THIS TIME STEP      M/T
     ------------------                 ------------------------

           IN:                                      IN:
           ---                                      ---
                 GWF =           0.0000                   GWF =           0.0000
            RAINFALL =           0.0000              RAINFALL =           0.0000
         EVAPORATION =           0.0000           EVAPORATION =           0.0000
              RUNOFF =           0.0000                RUNOFF =           0.0000
          EXT-INFLOW =        6912.0000            EXT-INFLOW =          43.2000
         EXT-OUTFLOW =           0.0000           EXT-OUTFLOW =           0.0000
             STORAGE =           0.0000               STORAGE =           0.0000
            CONSTANT =           0.0000              CONSTANT =           0.0000

            TOTAL IN =        6912.0000              TOTAL IN =          43.2000

          OUT:                                     OUT:
          ----                                     ----
                 GWF =        6912.0000                   GWF =          43.2000
            RAINFALL =           0.0000              RAINFALL =           0.0000
         EVAPORATION =           0.0000           EVAPORATION =           0.0000
              RUNOFF =           0.0000                RUNOFF =           0.0000
          EXT-INFLOW =           0.0000            EXT-INFLOW =           0.0000
         EXT-OUTFLOW =           0.0000           EXT-OUTFLOW =           0.0000
             STORAGE =       2.7756E-16               STORAGE =           0.0000
            CONSTANT =           0.0000              CONSTANT =           0.0000

           TOTAL OUT =        6912.0000             TOTAL OUT =          43.2000

            IN - OUT =           0.0000              IN - OUT =           0.0000

 PERCENT DISCREPANCY =           0.00     PERCENT DISCREPANCY =           0.00



  MASS BUDGET FOR ENTIRE MODEL AT END OF TIME STEP   16, STRESS PERIOD   1
  ---------------------------------------------------------------------------------------------------

     CUMULATIVE MASS      M       RATES FOR THIS TIME STEP      M/T          PACKAGE NAME    
     ------------------                 ------------------------                     ----------------

           IN:                                      IN:
           ---                                      ---
     STORAGE-AQUEOUS =       3.4111E-15       STORAGE-AQUEOUS =       1.1173E-16     MST             
               RCH-1 =           0.0000                 RCH-1 =           0.0000     SSM             
               CHD-1 =           0.0000                 CHD-1 =           0.0000     SSM             
     FLOW-CORRECTION =       1.6059E-07       FLOW-CORRECTION =       1.0107E-09                     
                 SFT =        6912.0000                   SFT =          43.2000     SFR-1           

            TOTAL IN =        6912.0000              TOTAL IN =          43.2000

          OUT:                                     OUT:
          ----                                     ----
     STORAGE-AQUEOUS =        6912.0000       STORAGE-AQUEOUS =          43.2000     MST             
               RCH-1 =           0.0000                 RCH-1 =           0.0000     SSM             
               CHD-1 =       1.0350E-94                 CHD-1 =       9.4167E-96     SSM             
     FLOW-CORRECTION =       1.8008E-05       FLOW-CORRECTION =       2.2176E-07                     
                 SFT =           0.0000                   SFT =           0.0000     SFR-1           

           TOTAL OUT =        6912.0000             TOTAL OUT =          43.2000

            IN - OUT =       3.0043E-06              IN - OUT =       2.7199E-08

 PERCENT DISCREPANCY =           0.00     PERCENT DISCREPANCY =           0.00




         TIME SUMMARY AT END OF TIME STEP   16 IN STRESS PERIOD    1
                    SECONDS     MINUTES      HOURS       DAYS        YEARS
                    -----------------------------------------------------------
   TIME STEP LENGTH 8.64000E+05  14400.      240.00      10.000     2.73785E-02
 STRESS PERIOD TIME 1.38240E+07 2.30400E+05  3840.0      160.00     0.43806    
         TOTAL TIME 1.38240E+07 2.30400E+05  3840.0      160.00     0.43806    


end timestep


start timestep kper="1" kstp="17" mode="normal"


 FMI SETTING BUDGET TERMS FOR KSTP 17 AND KPER 1 TO BUDGET FILE TERMS FROM KSTP 1 AND KPER 1

 FMI SETTING HEAD FOR KSTP 17 AND KPER 1 TO BINARY FILE HEADS FROM KSTP 1 AND KPER 1

 SFR-1 SETTING BUDGET TERMS FOR KSTP 17 AND KPER 1 TO BUDGET FILE TERMS FROM KSTP 1 AND KPER 1

 SFT PACKAGE (SFR-1) FLOW RATES   PERIOD      1   STEP       17
 ----------------------------------------------------------------------------------------
   NUMBER   CELLID                    RATE       NAME                                    
 ----------------------------------------------------------------------------------------
     1      (1,1,169)             21.929568      SFTREACH1                               
     2      (1,1,170)             21.270432      SFTREACH2                               
     3      (1,1,171)             0.0000000      SFTREACH3                               
     4      (1,1,172)             0.0000000      SFTREACH4                               
     5      (1,1,173)             0.0000000      SFTREACH5                               
     6      (1,1,174)             0.0000000      SFTREACH6                               
     7      (1,1,175)             0.0000000      SFTREACH7                               
     8      (1,1,176)             0.0000000      SFTREACH8                               
     9      (1,1,177)             0.0000000      SFTREACH9                               
     10     (1,1,178)             0.0000000      SFTREACH10                              
     11     (1,1,179)             0.0000000      SFTREACH11                              
     12     (1,1,180)             0.0000000      SFTREACH12                              
     13     (1,1,181)             0.0000000      SFTREACH13                              
     14     (1,1,182)             0.0000000      SFTREACH14                              
     15     (1,1,183)             0.0000000      SFTREACH15                              
     16     (1,1,184)             0.0000000      SFTREACH16                              
     17     (1,1,185)             0.0000000      SFTREACH17                              
     18     (1,1,186)             0.0000000      SFTREACH18                              
     19     (1,1,187)             0.0000000      SFTREACH19                              
     20     (1,1,188)             0.0000000      SFTREACH20                              
     21     (1,1,189)             0.0000000      SFTREACH21                              
     22     (1,1,190)             0.0000000      SFTREACH22                              
     23     (1,1,191)             0.0000000      SFTREACH23                              
     24     (1,1,192)             0.0000000      SFTREACH24                              
 ----------------------------------------------------------------------------------------




 SFR-1 PACKAGE - SUMMARY OF FLOWS FOR EACH CONTROL VOLUME   PERIOD      1   STEP       17
 ----------------------------------------------------------------------------------------------------------------------------------------------------------------------
                                                                                                                                                             PERCENT   
   NUMBER      INFLOW      OUTFLOW        GWF        RAINFALL   EVAPORATION     RUNOFF     EXT INFLOW  EXT OUTFLOW    STORAGE      CONSTANT     IN - OUT    DIFFERENCE 
 ----------------------------------------------------------------------------------------------------------------------------------------------------------------------
     1       0.0000      -21.270      -21.930       0.0000       0.0000       0.0000       43.200       0.0000       0.0000       0.0000      -7.10543E-15 -1.64477E-14
     2       21.270       0.0000      -21.270       0.0000       0.0000       0.0000       0.0000       0.0000       0.0000       0.0000       3.55271E-15  1.67026E-14
     3       0.0000       0.0000       0.0000       0.0000       0.0000       0.0000       0.0000       0.0000       0.0000       0.0000       0.0000       0.0000     
     4       0.0000       0.0000       0.0000       0.0000       0.0000       0.0000       0.0000       0.0000       0.0000       0.0000       0.0000       0.0000     
     5       0.0000       0.0000       0.0000       0.0000       0.0000       0.0000       0.0000       0.0000       0.0000       0.0000       0.0000       0.0000     
     6       0.0000       0.0000       0.0000       0.0000       0.0000       0.0000       0.0000       0.0000       0.0000       0.0000       0.0000       0.0000     
     7       0.0000       0.0000       0.0000       0.0000       0.0000       0.0000       0.0000       0.0000       0.0000       0.0000       0.0000       0.0000     
     8       0.0000       0.0000       0.0000       0.0000       0.0000       0.0000       0.0000       0.0000       0.0000       0.0000       0.0000       0.0000     
     9       0.0000       0.0000       0.0000       0.0000       0.0000       0.0000       0.0000       0.0000       0.0000       0.0000       0.0000       0.0000     
     10      0.0000       0.0000       0.0000       0.0000       0.0000       0.0000       0.0000       0.0000       0.0000       0.0000       0.0000       0.0000     
     11      0.0000       0.0000       0.0000       0.0000       0.0000       0.0000       0.0000       0.0000       0.0000       0.0000       0.0000       0.0000     
     12      0.0000       0.0000       0.0000       0.0000       0.0000       0.0000       0.0000       0.0000       0.0000       0.0000       0.0000       0.0000     
     13      0.0000       0.0000       0.0000       0.0000       0.0000       0.0000       0.0000       0.0000       0.0000       0.0000       0.0000       0.0000     
     14      0.0000       0.0000       0.0000       0.0000       0.0000       0.0000       0.0000       0.0000       0.0000       0.0000       0.0000       0.0000     
     15      0.0000       0.0000       0.0000       0.0000       0.0000       0.0000       0.0000       0.0000       0.0000       0.0000       0.0000       0.0000     
     16      0.0000       0.0000       0.0000       0.0000       0.0000       0.0000       0.0000       0.0000       0.0000       0.0000       0.0000       0.0000     
     17      0.0000       0.0000       0.0000       0.0000       0.0000       0.0000       0.0000       0.0000       0.0000       0.0000       0.0000       0.0000     
     18      0.0000       0.0000       0.0000       0.0000       0.0000       0.0000       0.0000       0.0000       0.0000       0.0000       0.0000       0.0000     
     19      0.0000       0.0000       0.0000       0.0000       0.0000       0.0000       0.0000       0.0000       0.0000       0.0000       0.0000       0.0000     
     20      0.0000       0.0000       0.0000       0.0000       0.0000       0.0000       0.0000       0.0000       0.0000       0.0000       0.0000       0.0000     
     21      0.0000       0.0000       0.0000       0.0000       0.0000       0.0000       0.0000       0.0000       0.0000       0.0000       0.0000       0.0000     
     22      0.0000       0.0000       0.0000       0.0000       0.0000       0.0000       0.0000       0.0000       0.0000       0.0000       0.0000       0.0000     
     23      0.0000       0.0000       0.0000       0.0000       0.0000       0.0000       0.0000       0.0000       0.0000       0.0000       0.0000       0.0000     
     24      0.0000       0.0000       0.0000       0.0000       0.0000       0.0000       0.0000       0.0000       0.0000       0.0000       0.0000       0.0000     
 ----------------------------------------------------------------------------------------------------------------------------------------------------------------------




  SFR-1 BUDGET FOR ENTIRE MODEL AT END OF TIME STEP   17, STRESS PERIOD   1
  ------------------------------------------------------------------------------

     CUMULATIVE SFR-1      M       RATES FOR THIS TIME STEP      M/T
     ------------------                 ------------------------

           IN:                                      IN:
           ---                                      ---
                 GWF =           0.0000                   GWF =           0.0000
            RAINFALL =           0.0000              RAINFALL =           0.0000
         EVAPORATION =           0.0000           EVAPORATION =           0.0000
              RUNOFF =           0.0000                RUNOFF =           0.0000
          EXT-INFLOW =        7344.0000            EXT-INFLOW =          43.2000
         EXT-OUTFLOW =           0.0000           EXT-OUTFLOW =           0.0000
             STORAGE =           0.0000               STORAGE =           0.0000
            CONSTANT =           0.0000              CONSTANT =           0.0000

            TOTAL IN =        7344.0000              TOTAL IN =          43.2000

          OUT:                                     OUT:
          ----                                     ----
                 GWF =        7344.0000                   GWF =          43.2000
            RAINFALL =           0.0000              RAINFALL =           0.0000
         EVAPORATION =           0.0000           EVAPORATION =           0.0000
              RUNOFF =           0.0000                RUNOFF =           0.0000
          EXT-INFLOW =           0.0000            EXT-INFLOW =           0.0000
         EXT-OUTFLOW =           0.0000           EXT-OUTFLOW =           0.0000
             STORAGE =       2.7756E-16               STORAGE =           0.0000
            CONSTANT =           0.0000              CONSTANT =           0.0000

           TOTAL OUT =        7344.0000             TOTAL OUT =          43.2000

            IN - OUT =           0.0000              IN - OUT =           0.0000

 PERCENT DISCREPANCY =           0.00     PERCENT DISCREPANCY =           0.00



  MASS BUDGET FOR ENTIRE MODEL AT END OF TIME STEP   17, STRESS PERIOD   1
  ---------------------------------------------------------------------------------------------------

     CUMULATIVE MASS      M       RATES FOR THIS TIME STEP      M/T          PACKAGE NAME    
     ------------------                 ------------------------                     ----------------

           IN:                                      IN:
           ---                                      ---
     STORAGE-AQUEOUS =       4.5285E-15       STORAGE-AQUEOUS =       1.1173E-16     MST             
               RCH-1 =           0.0000                 RCH-1 =           0.0000     SSM             
               CHD-1 =           0.0000                 CHD-1 =           0.0000     SSM             
     FLOW-CORRECTION =       1.7071E-07       FLOW-CORRECTION =       1.0127E-09                     
                 SFT =        7344.0000                   SFT =          43.2000     SFR-1           

            TOTAL IN =        7344.0000              TOTAL IN =          43.2000

          OUT:                                     OUT:
          ----                                     ----
     STORAGE-AQUEOUS =        7344.0000       STORAGE-AQUEOUS =          43.2000     MST             
               RCH-1 =           0.0000                 RCH-1 =           0.0000     SSM             
               CHD-1 =       1.0804E-93                 CHD-1 =       9.7689E-95     SSM             
     FLOW-CORRECTION =       2.0375E-05       FLOW-CORRECTION =       2.3669E-07                     
                 SFT =           0.0000                   SFT =           0.0000     SFR-1           

           TOTAL OUT =        7344.0000             TOTAL OUT =          43.2000

            IN - OUT =       3.2551E-06              IN - OUT =       2.5086E-08

 PERCENT DISCREPANCY =           0.00     PERCENT DISCREPANCY =           0.00




         TIME SUMMARY AT END OF TIME STEP   17 IN STRESS PERIOD    1
                    SECONDS     MINUTES      HOURS       DAYS        YEARS
                    -----------------------------------------------------------
   TIME STEP LENGTH 8.64000E+05  14400.      240.00      10.000     2.73785E-02
 STRESS PERIOD TIME 1.46880E+07 2.44800E+05  4080.0      170.00     0.46543    
         TOTAL TIME 1.46880E+07 2.44800E+05  4080.0      170.00     0.46543    


end timestep


start timestep kper="1" kstp="18" mode="normal"


 FMI SETTING BUDGET TERMS FOR KSTP 18 AND KPER 1 TO BUDGET FILE TERMS FROM KSTP 1 AND KPER 1

 FMI SETTING HEAD FOR KSTP 18 AND KPER 1 TO BINARY FILE HEADS FROM KSTP 1 AND KPER 1

 SFR-1 SETTING BUDGET TERMS FOR KSTP 18 AND KPER 1 TO BUDGET FILE TERMS FROM KSTP 1 AND KPER 1

 SFT PACKAGE (SFR-1) FLOW RATES   PERIOD      1   STEP       18
 ----------------------------------------------------------------------------------------
   NUMBER   CELLID                    RATE       NAME                                    
 ----------------------------------------------------------------------------------------
     1      (1,1,169)             21.929568      SFTREACH1                               
     2      (1,1,170)             21.270432      SFTREACH2                               
     3      (1,1,171)             0.0000000      SFTREACH3                               
     4      (1,1,172)             0.0000000      SFTREACH4                               
     5      (1,1,173)             0.0000000      SFTREACH5                               
     6      (1,1,174)             0.0000000      SFTREACH6                               
     7      (1,1,175)             0.0000000      SFTREACH7                               
     8      (1,1,176)             0.0000000      SFTREACH8                               
     9      (1,1,177)             0.0000000      SFTREACH9                               
     10     (1,1,178)             0.0000000      SFTREACH10                              
     11     (1,1,179)             0.0000000      SFTREACH11                              
     12     (1,1,180)             0.0000000      SFTREACH12                              
     13     (1,1,181)             0.0000000      SFTREACH13                              
     14     (1,1,182)             0.0000000      SFTREACH14                              
     15     (1,1,183)             0.0000000      SFTREACH15                              
     16     (1,1,184)             0.0000000      SFTREACH16                              
     17     (1,1,185)             0.0000000      SFTREACH17                              
     18     (1,1,186)             0.0000000      SFTREACH18                              
     19     (1,1,187)             0.0000000      SFTREACH19                              
     20     (1,1,188)             0.0000000      SFTREACH20                              
     21     (1,1,189)             0.0000000      SFTREACH21                              
     22     (1,1,190)             0.0000000      SFTREACH22                              
     23     (1,1,191)             0.0000000      SFTREACH23                              
     24     (1,1,192)             0.0000000      SFTREACH24                              
 ----------------------------------------------------------------------------------------




 SFR-1 PACKAGE - SUMMARY OF FLOWS FOR EACH CONTROL VOLUME   PERIOD      1   STEP       18
 ----------------------------------------------------------------------------------------------------------------------------------------------------------------------
                                                                                                                                                             PERCENT   
   NUMBER      INFLOW      OUTFLOW        GWF        RAINFALL   EVAPORATION     RUNOFF     EXT INFLOW  EXT OUTFLOW    STORAGE      CONSTANT     IN - OUT    DIFFERENCE 
 ----------------------------------------------------------------------------------------------------------------------------------------------------------------------
     1       0.0000      -21.270      -21.930       0.0000       0.0000       0.0000       43.200       0.0000       0.0000       0.0000      -7.10543E-15 -1.64477E-14
     2       21.270       0.0000      -21.270       0.0000       0.0000       0.0000       0.0000       0.0000       0.0000       0.0000       3.55271E-15  1.67026E-14
     3       0.0000       0.0000       0.0000       0.0000       0.0000       0.0000       0.0000       0.0000       0.0000       0.0000       0.0000       0.0000     
     4       0.0000       0.0000       0.0000       0.0000       0.0000       0.0000       0.0000       0.0000       0.0000       0.0000       0.0000       0.0000     
     5       0.0000       0.0000       0.0000       0.0000       0.0000       0.0000       0.0000       0.0000       0.0000       0.0000       0.0000       0.0000     
     6       0.0000       0.0000       0.0000       0.0000       0.0000       0.0000       0.0000       0.0000       0.0000       0.0000       0.0000       0.0000     
     7       0.0000       0.0000       0.0000       0.0000       0.0000       0.0000       0.0000       0.0000       0.0000       0.0000       0.0000       0.0000     
     8       0.0000       0.0000       0.0000       0.0000       0.0000       0.0000       0.0000       0.0000       0.0000       0.0000       0.0000       0.0000     
     9       0.0000       0.0000       0.0000       0.0000       0.0000       0.0000       0.0000       0.0000       0.0000       0.0000       0.0000       0.0000     
     10      0.0000       0.0000       0.0000       0.0000       0.0000       0.0000       0.0000       0.0000       0.0000       0.0000       0.0000       0.0000     
     11      0.0000       0.0000       0.0000       0.0000       0.0000       0.0000       0.0000       0.0000       0.0000       0.0000       0.0000       0.0000     
     12      0.0000       0.0000       0.0000       0.0000       0.0000       0.0000       0.0000       0.0000       0.0000       0.0000       0.0000       0.0000     
     13      0.0000       0.0000       0.0000       0.0000       0.0000       0.0000       0.0000       0.0000       0.0000       0.0000       0.0000       0.0000     
     14      0.0000       0.0000       0.0000       0.0000       0.0000       0.0000       0.0000       0.0000       0.0000       0.0000       0.0000       0.0000     
     15      0.0000       0.0000       0.0000       0.0000       0.0000       0.0000       0.0000       0.0000       0.0000       0.0000       0.0000       0.0000     
     16      0.0000       0.0000       0.0000       0.0000       0.0000       0.0000       0.0000       0.0000       0.0000       0.0000       0.0000       0.0000     
     17      0.0000       0.0000       0.0000       0.0000       0.0000       0.0000       0.0000       0.0000       0.0000       0.0000       0.0000       0.0000     
     18      0.0000       0.0000       0.0000       0.0000       0.0000       0.0000       0.0000       0.0000       0.0000       0.0000       0.0000       0.0000     
     19      0.0000       0.0000       0.0000       0.0000       0.0000       0.0000       0.0000       0.0000       0.0000       0.0000       0.0000       0.0000     
     20      0.0000       0.0000       0.0000       0.0000       0.0000       0.0000       0.0000       0.0000       0.0000       0.0000       0.0000       0.0000     
     21      0.0000       0.0000       0.0000       0.0000       0.0000       0.0000       0.0000       0.0000       0.0000       0.0000       0.0000       0.0000     
     22      0.0000       0.0000       0.0000       0.0000       0.0000       0.0000       0.0000       0.0000       0.0000       0.0000       0.0000       0.0000     
     23      0.0000       0.0000       0.0000       0.0000       0.0000       0.0000       0.0000       0.0000       0.0000       0.0000       0.0000       0.0000     
     24      0.0000       0.0000       0.0000       0.0000       0.0000       0.0000       0.0000       0.0000       0.0000       0.0000       0.0000       0.0000     
 ----------------------------------------------------------------------------------------------------------------------------------------------------------------------




  SFR-1 BUDGET FOR ENTIRE MODEL AT END OF TIME STEP   18, STRESS PERIOD   1
  ------------------------------------------------------------------------------

     CUMULATIVE SFR-1      M       RATES FOR THIS TIME STEP      M/T
     ------------------                 ------------------------

           IN:                                      IN:
           ---                                      ---
                 GWF =           0.0000                   GWF =           0.0000
            RAINFALL =           0.0000              RAINFALL =           0.0000
         EVAPORATION =           0.0000           EVAPORATION =           0.0000
              RUNOFF =           0.0000                RUNOFF =           0.0000
          EXT-INFLOW =        7776.0000            EXT-INFLOW =          43.2000
         EXT-OUTFLOW =           0.0000           EXT-OUTFLOW =           0.0000
             STORAGE =           0.0000               STORAGE =           0.0000
            CONSTANT =           0.0000              CONSTANT =           0.0000

            TOTAL IN =        7776.0000              TOTAL IN =          43.2000

          OUT:                                     OUT:
          ----                                     ----
                 GWF =        7776.0000                   GWF =          43.2000
            RAINFALL =           0.0000              RAINFALL =           0.0000
         EVAPORATION =           0.0000           EVAPORATION =           0.0000
              RUNOFF =           0.0000                RUNOFF =           0.0000
          EXT-INFLOW =           0.0000            EXT-INFLOW =           0.0000
         EXT-OUTFLOW =           0.0000           EXT-OUTFLOW =           0.0000
             STORAGE =       2.7756E-16               STORAGE =           0.0000
            CONSTANT =           0.0000              CONSTANT =           0.0000

           TOTAL OUT =        7776.0000             TOTAL OUT =          43.2000

            IN - OUT =           0.0000              IN - OUT =           0.0000

 PERCENT DISCREPANCY =           0.00     PERCENT DISCREPANCY =           0.00



  MASS BUDGET FOR ENTIRE MODEL AT END OF TIME STEP   18, STRESS PERIOD   1
  ---------------------------------------------------------------------------------------------------

     CUMULATIVE MASS      M       RATES FOR THIS TIME STEP      M/T          PACKAGE NAME    
     ------------------                 ------------------------                     ----------------

           IN:                                      IN:
           ---                                      ---
     STORAGE-AQUEOUS =       5.6458E-15       STORAGE-AQUEOUS =       1.1173E-16     MST             
               RCH-1 =           0.0000                 RCH-1 =           0.0000     SSM             
               CHD-1 =           0.0000                 CHD-1 =           0.0000     SSM             
     FLOW-CORRECTION =       1.8087E-07       FLOW-CORRECTION =       1.0154E-09                     
                 SFT =        7776.0000                   SFT =          43.2000     SFR-1           

            TOTAL IN =        7776.0000              TOTAL IN =          43.2000

          OUT:                                     OUT:
          ----                                     ----
     STORAGE-AQUEOUS =        7776.0000       STORAGE-AQUEOUS =          43.2000     MST             
               RCH-1 =           0.0000                 RCH-1 =           0.0000     SSM             
               CHD-1 =       1.0658E-92                 CHD-1 =       9.5780E-94     SSM             
     FLOW-CORRECTION =       2.2892E-05       FLOW-CORRECTION =       2.5171E-07                     
                 SFT =           0.0000                   SFT =           0.0000     SFR-1           

           TOTAL OUT =        7776.0000             TOTAL OUT =          43.2000

            IN - OUT =       3.4846E-06              IN - OUT =       2.2953E-08

 PERCENT DISCREPANCY =           0.00     PERCENT DISCREPANCY =           0.00




         TIME SUMMARY AT END OF TIME STEP   18 IN STRESS PERIOD    1
                    SECONDS     MINUTES      HOURS       DAYS        YEARS
                    -----------------------------------------------------------
   TIME STEP LENGTH 8.64000E+05  14400.      240.00      10.000     2.73785E-02
 STRESS PERIOD TIME 1.55520E+07 2.59200E+05  4320.0      180.00     0.49281    
         TOTAL TIME 1.55520E+07 2.59200E+05  4320.0      180.00     0.49281    


end timestep


start timestep kper="1" kstp="19" mode="normal"


 FMI SETTING BUDGET TERMS FOR KSTP 19 AND KPER 1 TO BUDGET FILE TERMS FROM KSTP 1 AND KPER 1

 FMI SETTING HEAD FOR KSTP 19 AND KPER 1 TO BINARY FILE HEADS FROM KSTP 1 AND KPER 1

 SFR-1 SETTING BUDGET TERMS FOR KSTP 19 AND KPER 1 TO BUDGET FILE TERMS FROM KSTP 1 AND KPER 1

 SFT PACKAGE (SFR-1) FLOW RATES   PERIOD      1   STEP       19
 ----------------------------------------------------------------------------------------
   NUMBER   CELLID                    RATE       NAME                                    
 ----------------------------------------------------------------------------------------
     1      (1,1,169)             21.929568      SFTREACH1                               
     2      (1,1,170)             21.270432      SFTREACH2                               
     3      (1,1,171)             0.0000000      SFTREACH3                               
     4      (1,1,172)             0.0000000      SFTREACH4                               
     5      (1,1,173)             0.0000000      SFTREACH5                               
     6      (1,1,174)             0.0000000      SFTREACH6                               
     7      (1,1,175)             0.0000000      SFTREACH7                               
     8      (1,1,176)             0.0000000      SFTREACH8                               
     9      (1,1,177)             0.0000000      SFTREACH9                               
     10     (1,1,178)             0.0000000      SFTREACH10                              
     11     (1,1,179)             0.0000000      SFTREACH11                              
     12     (1,1,180)             0.0000000      SFTREACH12                              
     13     (1,1,181)             0.0000000      SFTREACH13                              
     14     (1,1,182)             0.0000000      SFTREACH14                              
     15     (1,1,183)             0.0000000      SFTREACH15                              
     16     (1,1,184)             0.0000000      SFTREACH16                              
     17     (1,1,185)             0.0000000      SFTREACH17                              
     18     (1,1,186)             0.0000000      SFTREACH18                              
     19     (1,1,187)             0.0000000      SFTREACH19                              
     20     (1,1,188)             0.0000000      SFTREACH20                              
     21     (1,1,189)             0.0000000      SFTREACH21                              
     22     (1,1,190)             0.0000000      SFTREACH22                              
     23     (1,1,191)             0.0000000      SFTREACH23                              
     24     (1,1,192)             0.0000000      SFTREACH24                              
 ----------------------------------------------------------------------------------------




 SFR-1 PACKAGE - SUMMARY OF FLOWS FOR EACH CONTROL VOLUME   PERIOD      1   STEP       19
 ----------------------------------------------------------------------------------------------------------------------------------------------------------------------
                                                                                                                                                             PERCENT   
   NUMBER      INFLOW      OUTFLOW        GWF        RAINFALL   EVAPORATION     RUNOFF     EXT INFLOW  EXT OUTFLOW    STORAGE      CONSTANT     IN - OUT    DIFFERENCE 
 ----------------------------------------------------------------------------------------------------------------------------------------------------------------------
     1       0.0000      -21.270      -21.930       0.0000       0.0000       0.0000       43.200       0.0000       0.0000       0.0000      -7.10543E-15 -1.64477E-14
     2       21.270       0.0000      -21.270       0.0000       0.0000       0.0000       0.0000       0.0000       0.0000       0.0000       3.55271E-15  1.67026E-14
     3       0.0000       0.0000       0.0000       0.0000       0.0000       0.0000       0.0000       0.0000       0.0000       0.0000       0.0000       0.0000     
     4       0.0000       0.0000       0.0000       0.0000       0.0000       0.0000       0.0000       0.0000       0.0000       0.0000       0.0000       0.0000     
     5       0.0000       0.0000       0.0000       0.0000       0.0000       0.0000       0.0000       0.0000       0.0000       0.0000       0.0000       0.0000     
     6       0.0000       0.0000       0.0000       0.0000       0.0000       0.0000       0.0000       0.0000       0.0000       0.0000       0.0000       0.0000     
     7       0.0000       0.0000       0.0000       0.0000       0.0000       0.0000       0.0000       0.0000       0.0000       0.0000       0.0000       0.0000     
     8       0.0000       0.0000       0.0000       0.0000       0.0000       0.0000       0.0000       0.0000       0.0000       0.0000       0.0000       0.0000     
     9       0.0000       0.0000       0.0000       0.0000       0.0000       0.0000       0.0000       0.0000       0.0000       0.0000       0.0000       0.0000     
     10      0.0000       0.0000       0.0000       0.0000       0.0000       0.0000       0.0000       0.0000       0.0000       0.0000       0.0000       0.0000     
     11      0.0000       0.0000       0.0000       0.0000       0.0000       0.0000       0.0000       0.0000       0.0000       0.0000       0.0000       0.0000     
     12      0.0000       0.0000       0.0000       0.0000       0.0000       0.0000       0.0000       0.0000       0.0000       0.0000       0.0000       0.0000     
     13      0.0000       0.0000       0.0000       0.0000       0.0000       0.0000       0.0000       0.0000       0.0000       0.0000       0.0000       0.0000     
     14      0.0000       0.0000       0.0000       0.0000       0.0000       0.0000       0.0000       0.0000       0.0000       0.0000       0.0000       0.0000     
     15      0.0000       0.0000       0.0000       0.0000       0.0000       0.0000       0.0000       0.0000       0.0000       0.0000       0.0000       0.0000     
     16      0.0000       0.0000       0.0000       0.0000       0.0000       0.0000       0.0000       0.0000       0.0000       0.0000       0.0000       0.0000     
     17      0.0000       0.0000       0.0000       0.0000       0.0000       0.0000       0.0000       0.0000       0.0000       0.0000       0.0000       0.0000     
     18      0.0000       0.0000       0.0000       0.0000       0.0000       0.0000       0.0000       0.0000       0.0000       0.0000       0.0000       0.0000     
     19      0.0000       0.0000       0.0000       0.0000       0.0000       0.0000       0.0000       0.0000       0.0000       0.0000       0.0000       0.0000     
     20      0.0000       0.0000       0.0000       0.0000       0.0000       0.0000       0.0000       0.0000       0.0000       0.0000       0.0000       0.0000     
     21      0.0000       0.0000       0.0000       0.0000       0.0000       0.0000       0.0000       0.0000       0.0000       0.0000       0.0000       0.0000     
     22      0.0000       0.0000       0.0000       0.0000       0.0000       0.0000       0.0000       0.0000       0.0000       0.0000       0.0000       0.0000     
     23      0.0000       0.0000       0.0000       0.0000       0.0000       0.0000       0.0000       0.0000       0.0000       0.0000       0.0000       0.0000     
     24      0.0000       0.0000       0.0000       0.0000       0.0000       0.0000       0.0000       0.0000       0.0000       0.0000       0.0000       0.0000     
 ----------------------------------------------------------------------------------------------------------------------------------------------------------------------




  SFR-1 BUDGET FOR ENTIRE MODEL AT END OF TIME STEP   19, STRESS PERIOD   1
  ------------------------------------------------------------------------------

     CUMULATIVE SFR-1      M       RATES FOR THIS TIME STEP      M/T
     ------------------                 ------------------------

           IN:                                      IN:
           ---                                      ---
                 GWF =           0.0000                   GWF =           0.0000
            RAINFALL =           0.0000              RAINFALL =           0.0000
         EVAPORATION =           0.0000           EVAPORATION =           0.0000
              RUNOFF =           0.0000                RUNOFF =           0.0000
          EXT-INFLOW =        8208.0000            EXT-INFLOW =          43.2000
         EXT-OUTFLOW =           0.0000           EXT-OUTFLOW =           0.0000
             STORAGE =           0.0000               STORAGE =           0.0000
            CONSTANT =           0.0000              CONSTANT =           0.0000

            TOTAL IN =        8208.0000              TOTAL IN =          43.2000

          OUT:                                     OUT:
          ----                                     ----
                 GWF =        8208.0000                   GWF =          43.2000
            RAINFALL =           0.0000              RAINFALL =           0.0000
         EVAPORATION =           0.0000           EVAPORATION =           0.0000
              RUNOFF =           0.0000                RUNOFF =           0.0000
          EXT-INFLOW =           0.0000            EXT-INFLOW =           0.0000
         EXT-OUTFLOW =           0.0000           EXT-OUTFLOW =           0.0000
             STORAGE =       2.7756E-16               STORAGE =           0.0000
            CONSTANT =           0.0000              CONSTANT =           0.0000

           TOTAL OUT =        8208.0000             TOTAL OUT =          43.2000

            IN - OUT =           0.0000              IN - OUT =           0.0000

 PERCENT DISCREPANCY =           0.00     PERCENT DISCREPANCY =           0.00



  MASS BUDGET FOR ENTIRE MODEL AT END OF TIME STEP   19, STRESS PERIOD   1
  ---------------------------------------------------------------------------------------------------

     CUMULATIVE MASS      M       RATES FOR THIS TIME STEP      M/T          PACKAGE NAME    
     ------------------                 ------------------------                     ----------------

           IN:                                      IN:
           ---                                      ---
     STORAGE-AQUEOUS =       6.7631E-15       STORAGE-AQUEOUS =       1.1173E-16     MST             
               RCH-1 =           0.0000                 RCH-1 =           0.0000     SSM             
               CHD-1 =           0.0000                 CHD-1 =           0.0000     SSM             
     FLOW-CORRECTION =       1.9106E-07       FLOW-CORRECTION =       1.0190E-09                     
                 SFT =        8208.0000                   SFT =          43.2000     SFR-1           

            TOTAL IN =        8208.0000              TOTAL IN =          43.2000

          OUT:                                     OUT:
          ----                                     ----
     STORAGE-AQUEOUS =        8208.0000       STORAGE-AQUEOUS =          43.2000     MST             
               RCH-1 =           0.0000                 RCH-1 =           0.0000     SSM             
               CHD-1 =       9.9719E-92                 CHD-1 =       8.9061E-93     SSM             
     FLOW-CORRECTION =       2.5560E-05       FLOW-CORRECTION =       2.6682E-07                     
                 SFT =           0.0000                   SFT =           0.0000     SFR-1           

           TOTAL OUT =        8208.0000             TOTAL OUT =          43.2000

            IN - OUT =       3.6944E-06              IN - OUT =       2.0979E-08

 PERCENT DISCREPANCY =           0.00     PERCENT DISCREPANCY =           0.00




         TIME SUMMARY AT END OF TIME STEP   19 IN STRESS PERIOD    1
                    SECONDS     MINUTES      HOURS       DAYS        YEARS
                    -----------------------------------------------------------
   TIME STEP LENGTH 8.64000E+05  14400.      240.00      10.000     2.73785E-02
 STRESS PERIOD TIME 1.64160E+07 2.73600E+05  4560.0      190.00     0.52019    
         TOTAL TIME 1.64160E+07 2.73600E+05  4560.0      190.00     0.52019    


end timestep


start timestep kper="1" kstp="20" mode="normal"


 FMI SETTING BUDGET TERMS FOR KSTP 20 AND KPER 1 TO BUDGET FILE TERMS FROM KSTP 1 AND KPER 1

 FMI SETTING HEAD FOR KSTP 20 AND KPER 1 TO BINARY FILE HEADS FROM KSTP 1 AND KPER 1

 SFR-1 SETTING BUDGET TERMS FOR KSTP 20 AND KPER 1 TO BUDGET FILE TERMS FROM KSTP 1 AND KPER 1

 SFT PACKAGE (SFR-1) FLOW RATES   PERIOD      1   STEP       20
 ----------------------------------------------------------------------------------------
   NUMBER   CELLID                    RATE       NAME                                    
 ----------------------------------------------------------------------------------------
     1      (1,1,169)             21.929568      SFTREACH1                               
     2      (1,1,170)             21.270432      SFTREACH2                               
     3      (1,1,171)             0.0000000      SFTREACH3                               
     4      (1,1,172)             0.0000000      SFTREACH4                               
     5      (1,1,173)             0.0000000      SFTREACH5                               
     6      (1,1,174)             0.0000000      SFTREACH6                               
     7      (1,1,175)             0.0000000      SFTREACH7                               
     8      (1,1,176)             0.0000000      SFTREACH8                               
     9      (1,1,177)             0.0000000      SFTREACH9                               
     10     (1,1,178)             0.0000000      SFTREACH10                              
     11     (1,1,179)             0.0000000      SFTREACH11                              
     12     (1,1,180)             0.0000000      SFTREACH12                              
     13     (1,1,181)             0.0000000      SFTREACH13                              
     14     (1,1,182)             0.0000000      SFTREACH14                              
     15     (1,1,183)             0.0000000      SFTREACH15                              
     16     (1,1,184)             0.0000000      SFTREACH16                              
     17     (1,1,185)             0.0000000      SFTREACH17                              
     18     (1,1,186)             0.0000000      SFTREACH18                              
     19     (1,1,187)             0.0000000      SFTREACH19                              
     20     (1,1,188)             0.0000000      SFTREACH20                              
     21     (1,1,189)             0.0000000      SFTREACH21                              
     22     (1,1,190)             0.0000000      SFTREACH22                              
     23     (1,1,191)             0.0000000      SFTREACH23                              
     24     (1,1,192)             0.0000000      SFTREACH24                              
 ----------------------------------------------------------------------------------------




 SFR-1 PACKAGE - SUMMARY OF FLOWS FOR EACH CONTROL VOLUME   PERIOD      1   STEP       20
 ----------------------------------------------------------------------------------------------------------------------------------------------------------------------
                                                                                                                                                             PERCENT   
   NUMBER      INFLOW      OUTFLOW        GWF        RAINFALL   EVAPORATION     RUNOFF     EXT INFLOW  EXT OUTFLOW    STORAGE      CONSTANT     IN - OUT    DIFFERENCE 
 ----------------------------------------------------------------------------------------------------------------------------------------------------------------------
     1       0.0000      -21.270      -21.930       0.0000       0.0000       0.0000       43.200       0.0000       0.0000       0.0000      -7.10543E-15 -1.64477E-14
     2       21.270       0.0000      -21.270       0.0000       0.0000       0.0000       0.0000       0.0000       0.0000       0.0000       3.55271E-15  1.67026E-14
     3       0.0000       0.0000       0.0000       0.0000       0.0000       0.0000       0.0000       0.0000       0.0000       0.0000       0.0000       0.0000     
     4       0.0000       0.0000       0.0000       0.0000       0.0000       0.0000       0.0000       0.0000       0.0000       0.0000       0.0000       0.0000     
     5       0.0000       0.0000       0.0000       0.0000       0.0000       0.0000       0.0000       0.0000       0.0000       0.0000       0.0000       0.0000     
     6       0.0000       0.0000       0.0000       0.0000       0.0000       0.0000       0.0000       0.0000       0.0000       0.0000       0.0000       0.0000     
     7       0.0000       0.0000       0.0000       0.0000       0.0000       0.0000       0.0000       0.0000       0.0000       0.0000       0.0000       0.0000     
     8       0.0000       0.0000       0.0000       0.0000       0.0000       0.0000       0.0000       0.0000       0.0000       0.0000       0.0000       0.0000     
     9       0.0000       0.0000       0.0000       0.0000       0.0000       0.0000       0.0000       0.0000       0.0000       0.0000       0.0000       0.0000     
     10      0.0000       0.0000       0.0000       0.0000       0.0000       0.0000       0.0000       0.0000       0.0000       0.0000       0.0000       0.0000     
     11      0.0000       0.0000       0.0000       0.0000       0.0000       0.0000       0.0000       0.0000       0.0000       0.0000       0.0000       0.0000     
     12      0.0000       0.0000       0.0000       0.0000       0.0000       0.0000       0.0000       0.0000       0.0000       0.0000       0.0000       0.0000     
     13      0.0000       0.0000       0.0000       0.0000       0.0000       0.0000       0.0000       0.0000       0.0000       0.0000       0.0000       0.0000     
     14      0.0000       0.0000       0.0000       0.0000       0.0000       0.0000       0.0000       0.0000       0.0000       0.0000       0.0000       0.0000     
     15      0.0000       0.0000       0.0000       0.0000       0.0000       0.0000       0.0000       0.0000       0.0000       0.0000       0.0000       0.0000     
     16      0.0000       0.0000       0.0000       0.0000       0.0000       0.0000       0.0000       0.0000       0.0000       0.0000       0.0000       0.0000     
     17      0.0000       0.0000       0.0000       0.0000       0.0000       0.0000       0.0000       0.0000       0.0000       0.0000       0.0000       0.0000     
     18      0.0000       0.0000       0.0000       0.0000       0.0000       0.0000       0.0000       0.0000       0.0000       0.0000       0.0000       0.0000     
     19      0.0000       0.0000       0.0000       0.0000       0.0000       0.0000       0.0000       0.0000       0.0000       0.0000       0.0000       0.0000     
     20      0.0000       0.0000       0.0000       0.0000       0.0000       0.0000       0.0000       0.0000       0.0000       0.0000       0.0000       0.0000     
     21      0.0000       0.0000       0.0000       0.0000       0.0000       0.0000       0.0000       0.0000       0.0000       0.0000       0.0000       0.0000     
     22      0.0000       0.0000       0.0000       0.0000       0.0000       0.0000       0.0000       0.0000       0.0000       0.0000       0.0000       0.0000     
     23      0.0000       0.0000       0.0000       0.0000       0.0000       0.0000       0.0000       0.0000       0.0000       0.0000       0.0000       0.0000     
     24      0.0000       0.0000       0.0000       0.0000       0.0000       0.0000       0.0000       0.0000       0.0000       0.0000       0.0000       0.0000     
 ----------------------------------------------------------------------------------------------------------------------------------------------------------------------



 CONCENTRATION WILL BE SAVED ON UNIT 1024 AT END OF TIME STEP   20, STRESS PERIOD    1


  SFR-1 BUDGET FOR ENTIRE MODEL AT END OF TIME STEP   20, STRESS PERIOD   1
  ------------------------------------------------------------------------------

     CUMULATIVE SFR-1      M       RATES FOR THIS TIME STEP      M/T
     ------------------                 ------------------------

           IN:                                      IN:
           ---                                      ---
                 GWF =           0.0000                   GWF =           0.0000
            RAINFALL =           0.0000              RAINFALL =           0.0000
         EVAPORATION =           0.0000           EVAPORATION =           0.0000
              RUNOFF =           0.0000                RUNOFF =           0.0000
          EXT-INFLOW =        8640.0000            EXT-INFLOW =          43.2000
         EXT-OUTFLOW =           0.0000           EXT-OUTFLOW =           0.0000
             STORAGE =           0.0000               STORAGE =           0.0000
            CONSTANT =           0.0000              CONSTANT =           0.0000

            TOTAL IN =        8640.0000              TOTAL IN =          43.2000

          OUT:                                     OUT:
          ----                                     ----
                 GWF =        8640.0000                   GWF =          43.2000
            RAINFALL =           0.0000              RAINFALL =           0.0000
         EVAPORATION =           0.0000           EVAPORATION =           0.0000
              RUNOFF =           0.0000                RUNOFF =           0.0000
          EXT-INFLOW =           0.0000            EXT-INFLOW =           0.0000
         EXT-OUTFLOW =           0.0000           EXT-OUTFLOW =           0.0000
             STORAGE =       2.7756E-16               STORAGE =           0.0000
            CONSTANT =           0.0000              CONSTANT =           0.0000

           TOTAL OUT =        8640.0000             TOTAL OUT =          43.2000

            IN - OUT =           0.0000              IN - OUT =           0.0000

 PERCENT DISCREPANCY =           0.00     PERCENT DISCREPANCY =           0.00



  MASS BUDGET FOR ENTIRE MODEL AT END OF TIME STEP   20, STRESS PERIOD   1
  ---------------------------------------------------------------------------------------------------

     CUMULATIVE MASS      M       RATES FOR THIS TIME STEP      M/T          PACKAGE NAME    
     ------------------                 ------------------------                     ----------------

           IN:                                      IN:
           ---                                      ---
     STORAGE-AQUEOUS =       8.1580E-15       STORAGE-AQUEOUS =       1.3949E-16     MST             
               RCH-1 =           0.0000                 RCH-1 =           0.0000     SSM             
               CHD-1 =           0.0000                 CHD-1 =           0.0000     SSM             
     FLOW-CORRECTION =       2.0130E-07       FLOW-CORRECTION =       1.0240E-09                     
                 SFT =        8640.0000                   SFT =          43.2000     SFR-1           

            TOTAL IN =        8640.0000              TOTAL IN =          43.2000

          OUT:                                     OUT:
          ----                                     ----
     STORAGE-AQUEOUS =        8640.0000       STORAGE-AQUEOUS =          43.2000     MST             
               RCH-1 =           0.0000                 RCH-1 =           0.0000     SSM             
               CHD-1 =       8.8753E-91                 CHD-1 =       7.8781E-92     SSM             
     FLOW-CORRECTION =       2.8380E-05       FLOW-CORRECTION =       2.8199E-07                     
                 SFT =           0.0000                   SFT =           0.0000     SFR-1           

           TOTAL OUT =        8640.0000             TOTAL OUT =          43.2000

            IN - OUT =       3.8883E-06              IN - OUT =       1.9386E-08

 PERCENT DISCREPANCY =           0.00     PERCENT DISCREPANCY =           0.00




         TIME SUMMARY AT END OF TIME STEP   20 IN STRESS PERIOD    1
                    SECONDS     MINUTES      HOURS       DAYS        YEARS
                    -----------------------------------------------------------
   TIME STEP LENGTH 8.64000E+05  14400.      240.00      10.000     2.73785E-02
 STRESS PERIOD TIME 1.72800E+07 2.88000E+05  4800.0      200.00     0.54757    
         TOTAL TIME 1.72800E+07 2.88000E+05  4800.0      200.00     0.54757    


end timestep


start timestep kper="1" kstp="21" mode="normal"


 FMI SETTING BUDGET TERMS FOR KSTP 21 AND KPER 1 TO BUDGET FILE TERMS FROM KSTP 1 AND KPER 1

 FMI SETTING HEAD FOR KSTP 21 AND KPER 1 TO BINARY FILE HEADS FROM KSTP 1 AND KPER 1

 SFR-1 SETTING BUDGET TERMS FOR KSTP 21 AND KPER 1 TO BUDGET FILE TERMS FROM KSTP 1 AND KPER 1

 SFT PACKAGE (SFR-1) FLOW RATES   PERIOD      1   STEP       21
 ----------------------------------------------------------------------------------------
   NUMBER   CELLID                    RATE       NAME                                    
 ----------------------------------------------------------------------------------------
     1      (1,1,169)             21.929568      SFTREACH1                               
     2      (1,1,170)             21.270432      SFTREACH2                               
     3      (1,1,171)             0.0000000      SFTREACH3                               
     4      (1,1,172)             0.0000000      SFTREACH4                               
     5      (1,1,173)             0.0000000      SFTREACH5                               
     6      (1,1,174)             0.0000000      SFTREACH6                               
     7      (1,1,175)             0.0000000      SFTREACH7                               
     8      (1,1,176)             0.0000000      SFTREACH8                               
     9      (1,1,177)             0.0000000      SFTREACH9                               
     10     (1,1,178)             0.0000000      SFTREACH10                              
     11     (1,1,179)             0.0000000      SFTREACH11                              
     12     (1,1,180)             0.0000000      SFTREACH12                              
     13     (1,1,181)             0.0000000      SFTREACH13                              
     14     (1,1,182)             0.0000000      SFTREACH14                              
     15     (1,1,183)             0.0000000      SFTREACH15                              
     16     (1,1,184)             0.0000000      SFTREACH16                              
     17     (1,1,185)             0.0000000      SFTREACH17                              
     18     (1,1,186)             0.0000000      SFTREACH18                              
     19     (1,1,187)             0.0000000      SFTREACH19                              
     20     (1,1,188)             0.0000000      SFTREACH20                              
     21     (1,1,189)             0.0000000      SFTREACH21                              
     22     (1,1,190)             0.0000000      SFTREACH22                              
     23     (1,1,191)             0.0000000      SFTREACH23                              
     24     (1,1,192)             0.0000000      SFTREACH24                              
 ----------------------------------------------------------------------------------------




 SFR-1 PACKAGE - SUMMARY OF FLOWS FOR EACH CONTROL VOLUME   PERIOD      1   STEP       21
 ----------------------------------------------------------------------------------------------------------------------------------------------------------------------
                                                                                                                                                             PERCENT   
   NUMBER      INFLOW      OUTFLOW        GWF        RAINFALL   EVAPORATION     RUNOFF     EXT INFLOW  EXT OUTFLOW    STORAGE      CONSTANT     IN - OUT    DIFFERENCE 
 ----------------------------------------------------------------------------------------------------------------------------------------------------------------------
     1       0.0000      -21.270      -21.930       0.0000       0.0000       0.0000       43.200       0.0000       0.0000       0.0000      -7.10543E-15 -1.64477E-14
     2       21.270       0.0000      -21.270       0.0000       0.0000       0.0000       0.0000       0.0000       0.0000       0.0000       3.55271E-15  1.67026E-14
     3       0.0000       0.0000       0.0000       0.0000       0.0000       0.0000       0.0000       0.0000       0.0000       0.0000       0.0000       0.0000     
     4       0.0000       0.0000       0.0000       0.0000       0.0000       0.0000       0.0000       0.0000       0.0000       0.0000       0.0000       0.0000     
     5       0.0000       0.0000       0.0000       0.0000       0.0000       0.0000       0.0000       0.0000       0.0000       0.0000       0.0000       0.0000     
     6       0.0000       0.0000       0.0000       0.0000       0.0000       0.0000       0.0000       0.0000       0.0000       0.0000       0.0000       0.0000     
     7       0.0000       0.0000       0.0000       0.0000       0.0000       0.0000       0.0000       0.0000       0.0000       0.0000       0.0000       0.0000     
     8       0.0000       0.0000       0.0000       0.0000       0.0000       0.0000       0.0000       0.0000       0.0000       0.0000       0.0000       0.0000     
     9       0.0000       0.0000       0.0000       0.0000       0.0000       0.0000       0.0000       0.0000       0.0000       0.0000       0.0000       0.0000     
     10      0.0000       0.0000       0.0000       0.0000       0.0000       0.0000       0.0000       0.0000       0.0000       0.0000       0.0000       0.0000     
     11      0.0000       0.0000       0.0000       0.0000       0.0000       0.0000       0.0000       0.0000       0.0000       0.0000       0.0000       0.0000     
     12      0.0000       0.0000       0.0000       0.0000       0.0000       0.0000       0.0000       0.0000       0.0000       0.0000       0.0000       0.0000     
     13      0.0000       0.0000       0.0000       0.0000       0.0000       0.0000       0.0000       0.0000       0.0000       0.0000       0.0000       0.0000     
     14      0.0000       0.0000       0.0000       0.0000       0.0000       0.0000       0.0000       0.0000       0.0000       0.0000       0.0000       0.0000     
     15      0.0000       0.0000       0.0000       0.0000       0.0000       0.0000       0.0000       0.0000       0.0000       0.0000       0.0000       0.0000     
     16      0.0000       0.0000       0.0000       0.0000       0.0000       0.0000       0.0000       0.0000       0.0000       0.0000       0.0000       0.0000     
     17      0.0000       0.0000       0.0000       0.0000       0.0000       0.0000       0.0000       0.0000       0.0000       0.0000       0.0000       0.0000     
     18      0.0000       0.0000       0.0000       0.0000       0.0000       0.0000       0.0000       0.0000       0.0000       0.0000       0.0000       0.0000     
     19      0.0000       0.0000       0.0000       0.0000       0.0000       0.0000       0.0000       0.0000       0.0000       0.0000       0.0000       0.0000     
     20      0.0000       0.0000       0.0000       0.0000       0.0000       0.0000       0.0000       0.0000       0.0000       0.0000       0.0000       0.0000     
     21      0.0000       0.0000       0.0000       0.0000       0.0000       0.0000       0.0000       0.0000       0.0000       0.0000       0.0000       0.0000     
     22      0.0000       0.0000       0.0000       0.0000       0.0000       0.0000       0.0000       0.0000       0.0000       0.0000       0.0000       0.0000     
     23      0.0000       0.0000       0.0000       0.0000       0.0000       0.0000       0.0000       0.0000       0.0000       0.0000       0.0000       0.0000     
     24      0.0000       0.0000       0.0000       0.0000       0.0000       0.0000       0.0000       0.0000       0.0000       0.0000       0.0000       0.0000     
 ----------------------------------------------------------------------------------------------------------------------------------------------------------------------




  SFR-1 BUDGET FOR ENTIRE MODEL AT END OF TIME STEP   21, STRESS PERIOD   1
  ------------------------------------------------------------------------------

     CUMULATIVE SFR-1      M       RATES FOR THIS TIME STEP      M/T
     ------------------                 ------------------------

           IN:                                      IN:
           ---                                      ---
                 GWF =           0.0000                   GWF =           0.0000
            RAINFALL =           0.0000              RAINFALL =           0.0000
         EVAPORATION =           0.0000           EVAPORATION =           0.0000
              RUNOFF =           0.0000                RUNOFF =           0.0000
          EXT-INFLOW =        9072.0000            EXT-INFLOW =          43.2000
         EXT-OUTFLOW =           0.0000           EXT-OUTFLOW =           0.0000
             STORAGE =           0.0000               STORAGE =           0.0000
            CONSTANT =           0.0000              CONSTANT =           0.0000

            TOTAL IN =        9072.0000              TOTAL IN =          43.2000

          OUT:                                     OUT:
          ----                                     ----
                 GWF =        9072.0000                   GWF =          43.2000
            RAINFALL =           0.0000              RAINFALL =           0.0000
         EVAPORATION =           0.0000           EVAPORATION =           0.0000
              RUNOFF =           0.0000                RUNOFF =           0.0000
          EXT-INFLOW =           0.0000            EXT-INFLOW =           0.0000
         EXT-OUTFLOW =           0.0000           EXT-OUTFLOW =           0.0000
             STORAGE =       2.7756E-16               STORAGE =           0.0000
            CONSTANT =           0.0000              CONSTANT =           0.0000

           TOTAL OUT =        9072.0000             TOTAL OUT =          43.2000

            IN - OUT =           0.0000              IN - OUT =           0.0000

 PERCENT DISCREPANCY =           0.00     PERCENT DISCREPANCY =           0.00



  MASS BUDGET FOR ENTIRE MODEL AT END OF TIME STEP   21, STRESS PERIOD   1
  ---------------------------------------------------------------------------------------------------

     CUMULATIVE MASS      M       RATES FOR THIS TIME STEP      M/T          PACKAGE NAME    
     ------------------                 ------------------------                     ----------------

           IN:                                      IN:
           ---                                      ---
     STORAGE-AQUEOUS =       1.3716E-14       STORAGE-AQUEOUS =       5.5582E-16     MST             
               RCH-1 =           0.0000                 RCH-1 =           0.0000     SSM             
               CHD-1 =           0.0000                 CHD-1 =           0.0000     SSM             
     FLOW-CORRECTION =       2.1160E-07       FLOW-CORRECTION =       1.0306E-09                     
                 SFT =        9072.0000                   SFT =          43.2000     SFR-1           

            TOTAL IN =        9072.0000              TOTAL IN =          43.2000

          OUT:                                     OUT:
          ----                                     ----
     STORAGE-AQUEOUS =        9072.0000       STORAGE-AQUEOUS =          43.2000     MST             
               RCH-1 =           0.0000                 RCH-1 =           0.0000     SSM             
               CHD-1 =       7.5352E-90                 CHD-1 =       6.6477E-91     SSM             
     FLOW-CORRECTION =       3.1352E-05       FLOW-CORRECTION =       2.9718E-07                     
                 SFT =           0.0000                   SFT =           0.0000     SFR-1           

           TOTAL OUT =        9072.0000             TOTAL OUT =          43.2000

            IN - OUT =       4.0706E-06              IN - OUT =       1.8230E-08

 PERCENT DISCREPANCY =           0.00     PERCENT DISCREPANCY =           0.00




         TIME SUMMARY AT END OF TIME STEP   21 IN STRESS PERIOD    1
                    SECONDS     MINUTES      HOURS       DAYS        YEARS
                    -----------------------------------------------------------
   TIME STEP LENGTH 8.64000E+05  14400.      240.00      10.000     2.73785E-02
 STRESS PERIOD TIME 1.81440E+07 3.02400E+05  5040.0      210.00     0.57495    
         TOTAL TIME 1.81440E+07 3.02400E+05  5040.0      210.00     0.57495    


end timestep


start timestep kper="1" kstp="22" mode="normal"


 FMI SETTING BUDGET TERMS FOR KSTP 22 AND KPER 1 TO BUDGET FILE TERMS FROM KSTP 1 AND KPER 1

 FMI SETTING HEAD FOR KSTP 22 AND KPER 1 TO BINARY FILE HEADS FROM KSTP 1 AND KPER 1

 SFR-1 SETTING BUDGET TERMS FOR KSTP 22 AND KPER 1 TO BUDGET FILE TERMS FROM KSTP 1 AND KPER 1

 SFT PACKAGE (SFR-1) FLOW RATES   PERIOD      1   STEP       22
 ----------------------------------------------------------------------------------------
   NUMBER   CELLID                    RATE       NAME                                    
 ----------------------------------------------------------------------------------------
     1      (1,1,169)             21.929568      SFTREACH1                               
     2      (1,1,170)             21.270432      SFTREACH2                               
     3      (1,1,171)             0.0000000      SFTREACH3                               
     4      (1,1,172)             0.0000000      SFTREACH4                               
     5      (1,1,173)             0.0000000      SFTREACH5                               
     6      (1,1,174)             0.0000000      SFTREACH6                               
     7      (1,1,175)             0.0000000      SFTREACH7                               
     8      (1,1,176)             0.0000000      SFTREACH8                               
     9      (1,1,177)             0.0000000      SFTREACH9                               
     10     (1,1,178)             0.0000000      SFTREACH10                              
     11     (1,1,179)             0.0000000      SFTREACH11                              
     12     (1,1,180)             0.0000000      SFTREACH12                              
     13     (1,1,181)             0.0000000      SFTREACH13                              
     14     (1,1,182)             0.0000000      SFTREACH14                              
     15     (1,1,183)             0.0000000      SFTREACH15                              
     16     (1,1,184)             0.0000000      SFTREACH16                              
     17     (1,1,185)             0.0000000      SFTREACH17                              
     18     (1,1,186)             0.0000000      SFTREACH18                              
     19     (1,1,187)             0.0000000      SFTREACH19                              
     20     (1,1,188)             0.0000000      SFTREACH20                              
     21     (1,1,189)             0.0000000      SFTREACH21                              
     22     (1,1,190)             0.0000000      SFTREACH22                              
     23     (1,1,191)             0.0000000      SFTREACH23                              
     24     (1,1,192)             0.0000000      SFTREACH24                              
 ----------------------------------------------------------------------------------------




 SFR-1 PACKAGE - SUMMARY OF FLOWS FOR EACH CONTROL VOLUME   PERIOD      1   STEP       22
 ----------------------------------------------------------------------------------------------------------------------------------------------------------------------
                                                                                                                                                             PERCENT   
   NUMBER      INFLOW      OUTFLOW        GWF        RAINFALL   EVAPORATION     RUNOFF     EXT INFLOW  EXT OUTFLOW    STORAGE      CONSTANT     IN - OUT    DIFFERENCE 
 ----------------------------------------------------------------------------------------------------------------------------------------------------------------------
     1       0.0000      -21.270      -21.930       0.0000       0.0000       0.0000       43.200       0.0000       0.0000       0.0000      -7.10543E-15 -1.64477E-14
     2       21.270       0.0000      -21.270       0.0000       0.0000       0.0000       0.0000       0.0000       0.0000       0.0000       3.55271E-15  1.67026E-14
     3       0.0000       0.0000       0.0000       0.0000       0.0000       0.0000       0.0000       0.0000       0.0000       0.0000       0.0000       0.0000     
     4       0.0000       0.0000       0.0000       0.0000       0.0000       0.0000       0.0000       0.0000       0.0000       0.0000       0.0000       0.0000     
     5       0.0000       0.0000       0.0000       0.0000       0.0000       0.0000       0.0000       0.0000       0.0000       0.0000       0.0000       0.0000     
     6       0.0000       0.0000       0.0000       0.0000       0.0000       0.0000       0.0000       0.0000       0.0000       0.0000       0.0000       0.0000     
     7       0.0000       0.0000       0.0000       0.0000       0.0000       0.0000       0.0000       0.0000       0.0000       0.0000       0.0000       0.0000     
     8       0.0000       0.0000       0.0000       0.0000       0.0000       0.0000       0.0000       0.0000       0.0000       0.0000       0.0000       0.0000     
     9       0.0000       0.0000       0.0000       0.0000       0.0000       0.0000       0.0000       0.0000       0.0000       0.0000       0.0000       0.0000     
     10      0.0000       0.0000       0.0000       0.0000       0.0000       0.0000       0.0000       0.0000       0.0000       0.0000       0.0000       0.0000     
     11      0.0000       0.0000       0.0000       0.0000       0.0000       0.0000       0.0000       0.0000       0.0000       0.0000       0.0000       0.0000     
     12      0.0000       0.0000       0.0000       0.0000       0.0000       0.0000       0.0000       0.0000       0.0000       0.0000       0.0000       0.0000     
     13      0.0000       0.0000       0.0000       0.0000       0.0000       0.0000       0.0000       0.0000       0.0000       0.0000       0.0000       0.0000     
     14      0.0000       0.0000       0.0000       0.0000       0.0000       0.0000       0.0000       0.0000       0.0000       0.0000       0.0000       0.0000     
     15      0.0000       0.0000       0.0000       0.0000       0.0000       0.0000       0.0000       0.0000       0.0000       0.0000       0.0000       0.0000     
     16      0.0000       0.0000       0.0000       0.0000       0.0000       0.0000       0.0000       0.0000       0.0000       0.0000       0.0000       0.0000     
     17      0.0000       0.0000       0.0000       0.0000       0.0000       0.0000       0.0000       0.0000       0.0000       0.0000       0.0000       0.0000     
     18      0.0000       0.0000       0.0000       0.0000       0.0000       0.0000       0.0000       0.0000       0.0000       0.0000       0.0000       0.0000     
     19      0.0000       0.0000       0.0000       0.0000       0.0000       0.0000       0.0000       0.0000       0.0000       0.0000       0.0000       0.0000     
     20      0.0000       0.0000       0.0000       0.0000       0.0000       0.0000       0.0000       0.0000       0.0000       0.0000       0.0000       0.0000     
     21      0.0000       0.0000       0.0000       0.0000       0.0000       0.0000       0.0000       0.0000       0.0000       0.0000       0.0000       0.0000     
     22      0.0000       0.0000       0.0000       0.0000       0.0000       0.0000       0.0000       0.0000       0.0000       0.0000       0.0000       0.0000     
     23      0.0000       0.0000       0.0000       0.0000       0.0000       0.0000       0.0000       0.0000       0.0000       0.0000       0.0000       0.0000     
     24      0.0000       0.0000       0.0000       0.0000       0.0000       0.0000       0.0000       0.0000       0.0000       0.0000       0.0000       0.0000     
 ----------------------------------------------------------------------------------------------------------------------------------------------------------------------




  SFR-1 BUDGET FOR ENTIRE MODEL AT END OF TIME STEP   22, STRESS PERIOD   1
  ------------------------------------------------------------------------------

     CUMULATIVE SFR-1      M       RATES FOR THIS TIME STEP      M/T
     ------------------                 ------------------------

           IN:                                      IN:
           ---                                      ---
                 GWF =           0.0000                   GWF =           0.0000
            RAINFALL =           0.0000              RAINFALL =           0.0000
         EVAPORATION =           0.0000           EVAPORATION =           0.0000
              RUNOFF =           0.0000                RUNOFF =           0.0000
          EXT-INFLOW =        9504.0000            EXT-INFLOW =          43.2000
         EXT-OUTFLOW =           0.0000           EXT-OUTFLOW =           0.0000
             STORAGE =           0.0000               STORAGE =           0.0000
            CONSTANT =           0.0000              CONSTANT =           0.0000

            TOTAL IN =        9504.0000              TOTAL IN =          43.2000

          OUT:                                     OUT:
          ----                                     ----
                 GWF =        9504.0000                   GWF =          43.2000
            RAINFALL =           0.0000              RAINFALL =           0.0000
         EVAPORATION =           0.0000           EVAPORATION =           0.0000
              RUNOFF =           0.0000                RUNOFF =           0.0000
          EXT-INFLOW =           0.0000            EXT-INFLOW =           0.0000
         EXT-OUTFLOW =           0.0000           EXT-OUTFLOW =           0.0000
             STORAGE =       2.7756E-16               STORAGE =           0.0000
            CONSTANT =           0.0000              CONSTANT =           0.0000

           TOTAL OUT =        9504.0000             TOTAL OUT =          43.2000

            IN - OUT =           0.0000              IN - OUT =           0.0000

 PERCENT DISCREPANCY =           0.00     PERCENT DISCREPANCY =           0.00



  MASS BUDGET FOR ENTIRE MODEL AT END OF TIME STEP   22, STRESS PERIOD   1
  ---------------------------------------------------------------------------------------------------

     CUMULATIVE MASS      M       RATES FOR THIS TIME STEP      M/T          PACKAGE NAME    
     ------------------                 ------------------------                     ----------------

           IN:                                      IN:
           ---                                      ---
     STORAGE-AQUEOUS =       1.9274E-14       STORAGE-AQUEOUS =       5.5582E-16     MST             
               RCH-1 =           0.0000                 RCH-1 =           0.0000     SSM             
               CHD-1 =           0.0000                 CHD-1 =           0.0000     SSM             
     FLOW-CORRECTION =       2.2200E-07       FLOW-CORRECTION =       1.0393E-09                     
                 SFT =        9504.0000                   SFT =          43.2000     SFR-1           

            TOTAL IN =        9504.0000              TOTAL IN =          43.2000

          OUT:                                     OUT:
          ----                                     ----
     STORAGE-AQUEOUS =        9504.0000       STORAGE-AQUEOUS =          43.2000     MST             
               RCH-1 =           0.0000                 RCH-1 =           0.0000     SSM             
               CHD-1 =       6.1179E-89                 CHD-1 =       5.3643E-90     SSM             
     FLOW-CORRECTION =       3.4475E-05       FLOW-CORRECTION =       3.1236E-07                     
                 SFT =           0.0000                   SFT =           0.0000     SFR-1           

           TOTAL OUT =        9504.0000             TOTAL OUT =          43.2000

            IN - OUT =       4.2449E-06              IN - OUT =       1.7433E-08

 PERCENT DISCREPANCY =           0.00     PERCENT DISCREPANCY =           0.00




         TIME SUMMARY AT END OF TIME STEP   22 IN STRESS PERIOD    1
                    SECONDS     MINUTES      HOURS       DAYS        YEARS
                    -----------------------------------------------------------
   TIME STEP LENGTH 8.64000E+05  14400.      240.00      10.000     2.73785E-02
 STRESS PERIOD TIME 1.90080E+07 3.16800E+05  5280.0      220.00     0.60233    
         TOTAL TIME 1.90080E+07 3.16800E+05  5280.0      220.00     0.60233    


end timestep


start timestep kper="1" kstp="23" mode="normal"


 FMI SETTING BUDGET TERMS FOR KSTP 23 AND KPER 1 TO BUDGET FILE TERMS FROM KSTP 1 AND KPER 1

 FMI SETTING HEAD FOR KSTP 23 AND KPER 1 TO BINARY FILE HEADS FROM KSTP 1 AND KPER 1

 SFR-1 SETTING BUDGET TERMS FOR KSTP 23 AND KPER 1 TO BUDGET FILE TERMS FROM KSTP 1 AND KPER 1

 SFT PACKAGE (SFR-1) FLOW RATES   PERIOD      1   STEP       23
 ----------------------------------------------------------------------------------------
   NUMBER   CELLID                    RATE       NAME                                    
 ----------------------------------------------------------------------------------------
     1      (1,1,169)             21.929568      SFTREACH1                               
     2      (1,1,170)             21.270432      SFTREACH2                               
     3      (1,1,171)             0.0000000      SFTREACH3                               
     4      (1,1,172)             0.0000000      SFTREACH4                               
     5      (1,1,173)             0.0000000      SFTREACH5                               
     6      (1,1,174)             0.0000000      SFTREACH6                               
     7      (1,1,175)             0.0000000      SFTREACH7                               
     8      (1,1,176)             0.0000000      SFTREACH8                               
     9      (1,1,177)             0.0000000      SFTREACH9                               
     10     (1,1,178)             0.0000000      SFTREACH10                              
     11     (1,1,179)             0.0000000      SFTREACH11                              
     12     (1,1,180)             0.0000000      SFTREACH12                              
     13     (1,1,181)             0.0000000      SFTREACH13                              
     14     (1,1,182)             0.0000000      SFTREACH14                              
     15     (1,1,183)             0.0000000      SFTREACH15                              
     16     (1,1,184)             0.0000000      SFTREACH16                              
     17     (1,1,185)             0.0000000      SFTREACH17                              
     18     (1,1,186)             0.0000000      SFTREACH18                              
     19     (1,1,187)             0.0000000      SFTREACH19                              
     20     (1,1,188)             0.0000000      SFTREACH20                              
     21     (1,1,189)             0.0000000      SFTREACH21                              
     22     (1,1,190)             0.0000000      SFTREACH22                              
     23     (1,1,191)             0.0000000      SFTREACH23                              
     24     (1,1,192)             0.0000000      SFTREACH24                              
 ----------------------------------------------------------------------------------------




 SFR-1 PACKAGE - SUMMARY OF FLOWS FOR EACH CONTROL VOLUME   PERIOD      1   STEP       23
 ----------------------------------------------------------------------------------------------------------------------------------------------------------------------
                                                                                                                                                             PERCENT   
   NUMBER      INFLOW      OUTFLOW        GWF        RAINFALL   EVAPORATION     RUNOFF     EXT INFLOW  EXT OUTFLOW    STORAGE      CONSTANT     IN - OUT    DIFFERENCE 
 ----------------------------------------------------------------------------------------------------------------------------------------------------------------------
     1       0.0000      -21.270      -21.930       0.0000       0.0000       0.0000       43.200       0.0000       0.0000       0.0000      -7.10543E-15 -1.64477E-14
     2       21.270       0.0000      -21.270       0.0000       0.0000       0.0000       0.0000       0.0000       0.0000       0.0000       3.55271E-15  1.67026E-14
     3       0.0000       0.0000       0.0000       0.0000       0.0000       0.0000       0.0000       0.0000       0.0000       0.0000       0.0000       0.0000     
     4       0.0000       0.0000       0.0000       0.0000       0.0000       0.0000       0.0000       0.0000       0.0000       0.0000       0.0000       0.0000     
     5       0.0000       0.0000       0.0000       0.0000       0.0000       0.0000       0.0000       0.0000       0.0000       0.0000       0.0000       0.0000     
     6       0.0000       0.0000       0.0000       0.0000       0.0000       0.0000       0.0000       0.0000       0.0000       0.0000       0.0000       0.0000     
     7       0.0000       0.0000       0.0000       0.0000       0.0000       0.0000       0.0000       0.0000       0.0000       0.0000       0.0000       0.0000     
     8       0.0000       0.0000       0.0000       0.0000       0.0000       0.0000       0.0000       0.0000       0.0000       0.0000       0.0000       0.0000     
     9       0.0000       0.0000       0.0000       0.0000       0.0000       0.0000       0.0000       0.0000       0.0000       0.0000       0.0000       0.0000     
     10      0.0000       0.0000       0.0000       0.0000       0.0000       0.0000       0.0000       0.0000       0.0000       0.0000       0.0000       0.0000     
     11      0.0000       0.0000       0.0000       0.0000       0.0000       0.0000       0.0000       0.0000       0.0000       0.0000       0.0000       0.0000     
     12      0.0000       0.0000       0.0000       0.0000       0.0000       0.0000       0.0000       0.0000       0.0000       0.0000       0.0000       0.0000     
     13      0.0000       0.0000       0.0000       0.0000       0.0000       0.0000       0.0000       0.0000       0.0000       0.0000       0.0000       0.0000     
     14      0.0000       0.0000       0.0000       0.0000       0.0000       0.0000       0.0000       0.0000       0.0000       0.0000       0.0000       0.0000     
     15      0.0000       0.0000       0.0000       0.0000       0.0000       0.0000       0.0000       0.0000       0.0000       0.0000       0.0000       0.0000     
     16      0.0000       0.0000       0.0000       0.0000       0.0000       0.0000       0.0000       0.0000       0.0000       0.0000       0.0000       0.0000     
     17      0.0000       0.0000       0.0000       0.0000       0.0000       0.0000       0.0000       0.0000       0.0000       0.0000       0.0000       0.0000     
     18      0.0000       0.0000       0.0000       0.0000       0.0000       0.0000       0.0000       0.0000       0.0000       0.0000       0.0000       0.0000     
     19      0.0000       0.0000       0.0000       0.0000       0.0000       0.0000       0.0000       0.0000       0.0000       0.0000       0.0000       0.0000     
     20      0.0000       0.0000       0.0000       0.0000       0.0000       0.0000       0.0000       0.0000       0.0000       0.0000       0.0000       0.0000     
     21      0.0000       0.0000       0.0000       0.0000       0.0000       0.0000       0.0000       0.0000       0.0000       0.0000       0.0000       0.0000     
     22      0.0000       0.0000       0.0000       0.0000       0.0000       0.0000       0.0000       0.0000       0.0000       0.0000       0.0000       0.0000     
     23      0.0000       0.0000       0.0000       0.0000       0.0000       0.0000       0.0000       0.0000       0.0000       0.0000       0.0000       0.0000     
     24      0.0000       0.0000       0.0000       0.0000       0.0000       0.0000       0.0000       0.0000       0.0000       0.0000       0.0000       0.0000     
 ----------------------------------------------------------------------------------------------------------------------------------------------------------------------




  SFR-1 BUDGET FOR ENTIRE MODEL AT END OF TIME STEP   23, STRESS PERIOD   1
  ------------------------------------------------------------------------------

     CUMULATIVE SFR-1      M       RATES FOR THIS TIME STEP      M/T
     ------------------                 ------------------------

           IN:                                      IN:
           ---                                      ---
                 GWF =           0.0000                   GWF =           0.0000
            RAINFALL =           0.0000              RAINFALL =           0.0000
         EVAPORATION =           0.0000           EVAPORATION =           0.0000
              RUNOFF =           0.0000                RUNOFF =           0.0000
          EXT-INFLOW =        9936.0000            EXT-INFLOW =          43.2000
         EXT-OUTFLOW =           0.0000           EXT-OUTFLOW =           0.0000
             STORAGE =           0.0000               STORAGE =           0.0000
            CONSTANT =           0.0000              CONSTANT =           0.0000

            TOTAL IN =        9936.0000              TOTAL IN =          43.2000

          OUT:                                     OUT:
          ----                                     ----
                 GWF =        9936.0000                   GWF =          43.2000
            RAINFALL =           0.0000              RAINFALL =           0.0000
         EVAPORATION =           0.0000           EVAPORATION =           0.0000
              RUNOFF =           0.0000                RUNOFF =           0.0000
          EXT-INFLOW =           0.0000            EXT-INFLOW =           0.0000
         EXT-OUTFLOW =           0.0000           EXT-OUTFLOW =           0.0000
             STORAGE =       2.7756E-16               STORAGE =           0.0000
            CONSTANT =           0.0000              CONSTANT =           0.0000

           TOTAL OUT =        9936.0000             TOTAL OUT =          43.2000

            IN - OUT =           0.0000              IN - OUT =           0.0000

 PERCENT DISCREPANCY =           0.00     PERCENT DISCREPANCY =           0.00



  MASS BUDGET FOR ENTIRE MODEL AT END OF TIME STEP   23, STRESS PERIOD   1
  ---------------------------------------------------------------------------------------------------

     CUMULATIVE MASS      M       RATES FOR THIS TIME STEP      M/T          PACKAGE NAME    
     ------------------                 ------------------------                     ----------------

           IN:                                      IN:
           ---                                      ---
     STORAGE-AQUEOUS =       2.4833E-14       STORAGE-AQUEOUS =       5.5582E-16     MST             
               RCH-1 =           0.0000                 RCH-1 =           0.0000     SSM             
               CHD-1 =           0.0000                 CHD-1 =           0.0000     SSM             
     FLOW-CORRECTION =       2.3250E-07       FLOW-CORRECTION =       1.0506E-09                     
                 SFT =        9936.0000                   SFT =          43.2000     SFR-1           

            TOTAL IN =        9936.0000              TOTAL IN =          43.2000

          OUT:                                     OUT:
          ----                                     ----
     STORAGE-AQUEOUS =        9936.0000       STORAGE-AQUEOUS =          43.2000     MST             
               RCH-1 =           0.0000                 RCH-1 =           0.0000     SSM             
               CHD-1 =       4.7608E-88                 CHD-1 =       4.1490E-89     SSM             
     FLOW-CORRECTION =       3.7750E-05       FLOW-CORRECTION =       3.2750E-07                     
                 SFT =           0.0000                   SFT =           0.0000     SFR-1           

           TOTAL OUT =        9936.0000             TOTAL OUT =          43.2000

            IN - OUT =       4.4138E-06              IN - OUT =       1.6888E-08

 PERCENT DISCREPANCY =           0.00     PERCENT DISCREPANCY =           0.00




         TIME SUMMARY AT END OF TIME STEP   23 IN STRESS PERIOD    1
                    SECONDS     MINUTES      HOURS       DAYS        YEARS
                    -----------------------------------------------------------
   TIME STEP LENGTH 8.64000E+05  14400.      240.00      10.000     2.73785E-02
 STRESS PERIOD TIME 1.98720E+07 3.31200E+05  5520.0      230.00     0.62971    
         TOTAL TIME 1.98720E+07 3.31200E+05  5520.0      230.00     0.62971    


end timestep


start timestep kper="1" kstp="24" mode="normal"


 FMI SETTING BUDGET TERMS FOR KSTP 24 AND KPER 1 TO BUDGET FILE TERMS FROM KSTP 1 AND KPER 1

 FMI SETTING HEAD FOR KSTP 24 AND KPER 1 TO BINARY FILE HEADS FROM KSTP 1 AND KPER 1

 SFR-1 SETTING BUDGET TERMS FOR KSTP 24 AND KPER 1 TO BUDGET FILE TERMS FROM KSTP 1 AND KPER 1

 SFT PACKAGE (SFR-1) FLOW RATES   PERIOD      1   STEP       24
 ----------------------------------------------------------------------------------------
   NUMBER   CELLID                    RATE       NAME                                    
 ----------------------------------------------------------------------------------------
     1      (1,1,169)             21.929568      SFTREACH1                               
     2      (1,1,170)             21.270432      SFTREACH2                               
     3      (1,1,171)             0.0000000      SFTREACH3                               
     4      (1,1,172)             0.0000000      SFTREACH4                               
     5      (1,1,173)             0.0000000      SFTREACH5                               
     6      (1,1,174)             0.0000000      SFTREACH6                               
     7      (1,1,175)             0.0000000      SFTREACH7                               
     8      (1,1,176)             0.0000000      SFTREACH8                               
     9      (1,1,177)             0.0000000      SFTREACH9                               
     10     (1,1,178)             0.0000000      SFTREACH10                              
     11     (1,1,179)             0.0000000      SFTREACH11                              
     12     (1,1,180)             0.0000000      SFTREACH12                              
     13     (1,1,181)             0.0000000      SFTREACH13                              
     14     (1,1,182)             0.0000000      SFTREACH14                              
     15     (1,1,183)             0.0000000      SFTREACH15                              
     16     (1,1,184)             0.0000000      SFTREACH16                              
     17     (1,1,185)             0.0000000      SFTREACH17                              
     18     (1,1,186)             0.0000000      SFTREACH18                              
     19     (1,1,187)             0.0000000      SFTREACH19                              
     20     (1,1,188)             0.0000000      SFTREACH20                              
     21     (1,1,189)             0.0000000      SFTREACH21                              
     22     (1,1,190)             0.0000000      SFTREACH22                              
     23     (1,1,191)             0.0000000      SFTREACH23                              
     24     (1,1,192)             0.0000000      SFTREACH24                              
 ----------------------------------------------------------------------------------------




 SFR-1 PACKAGE - SUMMARY OF FLOWS FOR EACH CONTROL VOLUME   PERIOD      1   STEP       24
 ----------------------------------------------------------------------------------------------------------------------------------------------------------------------
                                                                                                                                                             PERCENT   
   NUMBER      INFLOW      OUTFLOW        GWF        RAINFALL   EVAPORATION     RUNOFF     EXT INFLOW  EXT OUTFLOW    STORAGE      CONSTANT     IN - OUT    DIFFERENCE 
 ----------------------------------------------------------------------------------------------------------------------------------------------------------------------
     1       0.0000      -21.270      -21.930       0.0000       0.0000       0.0000       43.200       0.0000       0.0000       0.0000      -7.10543E-15 -1.64477E-14
     2       21.270       0.0000      -21.270       0.0000       0.0000       0.0000       0.0000       0.0000       0.0000       0.0000       3.55271E-15  1.67026E-14
     3       0.0000       0.0000       0.0000       0.0000       0.0000       0.0000       0.0000       0.0000       0.0000       0.0000       0.0000       0.0000     
     4       0.0000       0.0000       0.0000       0.0000       0.0000       0.0000       0.0000       0.0000       0.0000       0.0000       0.0000       0.0000     
     5       0.0000       0.0000       0.0000       0.0000       0.0000       0.0000       0.0000       0.0000       0.0000       0.0000       0.0000       0.0000     
     6       0.0000       0.0000       0.0000       0.0000       0.0000       0.0000       0.0000       0.0000       0.0000       0.0000       0.0000       0.0000     
     7       0.0000       0.0000       0.0000       0.0000       0.0000       0.0000       0.0000       0.0000       0.0000       0.0000       0.0000       0.0000     
     8       0.0000       0.0000       0.0000       0.0000       0.0000       0.0000       0.0000       0.0000       0.0000       0.0000       0.0000       0.0000     
     9       0.0000       0.0000       0.0000       0.0000       0.0000       0.0000       0.0000       0.0000       0.0000       0.0000       0.0000       0.0000     
     10      0.0000       0.0000       0.0000       0.0000       0.0000       0.0000       0.0000       0.0000       0.0000       0.0000       0.0000       0.0000     
     11      0.0000       0.0000       0.0000       0.0000       0.0000       0.0000       0.0000       0.0000       0.0000       0.0000       0.0000       0.0000     
     12      0.0000       0.0000       0.0000       0.0000       0.0000       0.0000       0.0000       0.0000       0.0000       0.0000       0.0000       0.0000     
     13      0.0000       0.0000       0.0000       0.0000       0.0000       0.0000       0.0000       0.0000       0.0000       0.0000       0.0000       0.0000     
     14      0.0000       0.0000       0.0000       0.0000       0.0000       0.0000       0.0000       0.0000       0.0000       0.0000       0.0000       0.0000     
     15      0.0000       0.0000       0.0000       0.0000       0.0000       0.0000       0.0000       0.0000       0.0000       0.0000       0.0000       0.0000     
     16      0.0000       0.0000       0.0000       0.0000       0.0000       0.0000       0.0000       0.0000       0.0000       0.0000       0.0000       0.0000     
     17      0.0000       0.0000       0.0000       0.0000       0.0000       0.0000       0.0000       0.0000       0.0000       0.0000       0.0000       0.0000     
     18      0.0000       0.0000       0.0000       0.0000       0.0000       0.0000       0.0000       0.0000       0.0000       0.0000       0.0000       0.0000     
     19      0.0000       0.0000       0.0000       0.0000       0.0000       0.0000       0.0000       0.0000       0.0000       0.0000       0.0000       0.0000     
     20      0.0000       0.0000       0.0000       0.0000       0.0000       0.0000       0.0000       0.0000       0.0000       0.0000       0.0000       0.0000     
     21      0.0000       0.0000       0.0000       0.0000       0.0000       0.0000       0.0000       0.0000       0.0000       0.0000       0.0000       0.0000     
     22      0.0000       0.0000       0.0000       0.0000       0.0000       0.0000       0.0000       0.0000       0.0000       0.0000       0.0000       0.0000     
     23      0.0000       0.0000       0.0000       0.0000       0.0000       0.0000       0.0000       0.0000       0.0000       0.0000       0.0000       0.0000     
     24      0.0000       0.0000       0.0000       0.0000       0.0000       0.0000       0.0000       0.0000       0.0000       0.0000       0.0000       0.0000     
 ----------------------------------------------------------------------------------------------------------------------------------------------------------------------




  SFR-1 BUDGET FOR ENTIRE MODEL AT END OF TIME STEP   24, STRESS PERIOD   1
  ------------------------------------------------------------------------------

     CUMULATIVE SFR-1      M       RATES FOR THIS TIME STEP      M/T
     ------------------                 ------------------------

           IN:                                      IN:
           ---                                      ---
                 GWF =           0.0000                   GWF =           0.0000
            RAINFALL =           0.0000              RAINFALL =           0.0000
         EVAPORATION =           0.0000           EVAPORATION =           0.0000
              RUNOFF =           0.0000                RUNOFF =           0.0000
          EXT-INFLOW =       10368.0000            EXT-INFLOW =          43.2000
         EXT-OUTFLOW =           0.0000           EXT-OUTFLOW =           0.0000
             STORAGE =           0.0000               STORAGE =           0.0000
            CONSTANT =           0.0000              CONSTANT =           0.0000

            TOTAL IN =       10368.0000              TOTAL IN =          43.2000

          OUT:                                     OUT:
          ----                                     ----
                 GWF =       10368.0000                   GWF =          43.2000
            RAINFALL =           0.0000              RAINFALL =           0.0000
         EVAPORATION =           0.0000           EVAPORATION =           0.0000
              RUNOFF =           0.0000                RUNOFF =           0.0000
          EXT-INFLOW =           0.0000            EXT-INFLOW =           0.0000
         EXT-OUTFLOW =           0.0000           EXT-OUTFLOW =           0.0000
             STORAGE =       2.7756E-16               STORAGE =           0.0000
            CONSTANT =           0.0000              CONSTANT =           0.0000

           TOTAL OUT =       10368.0000             TOTAL OUT =          43.2000

            IN - OUT =           0.0000              IN - OUT =           0.0000

 PERCENT DISCREPANCY =           0.00     PERCENT DISCREPANCY =           0.00



  MASS BUDGET FOR ENTIRE MODEL AT END OF TIME STEP   24, STRESS PERIOD   1
  ---------------------------------------------------------------------------------------------------

     CUMULATIVE MASS      M       RATES FOR THIS TIME STEP      M/T          PACKAGE NAME    
     ------------------                 ------------------------                     ----------------

           IN:                                      IN:
           ---                                      ---
     STORAGE-AQUEOUS =       3.0391E-14       STORAGE-AQUEOUS =       5.5582E-16     MST             
               RCH-1 =           0.0000                 RCH-1 =           0.0000     SSM             
               CHD-1 =           0.0000                 CHD-1 =           0.0000     SSM             
     FLOW-CORRECTION =       2.4315E-07       FLOW-CORRECTION =       1.0651E-09                     
                 SFT =       10368.0000                   SFT =          43.2000     SFR-1           

            TOTAL IN =       10368.0000              TOTAL IN =          43.2000

          OUT:                                     OUT:
          ----                                     ----
     STORAGE-AQUEOUS =       10368.0000       STORAGE-AQUEOUS =          43.2000     MST             
               RCH-1 =           0.0000                 RCH-1 =           0.0000     SSM             
               CHD-1 =       3.5581E-87                 CHD-1 =       3.0820E-88     SSM             
     FLOW-CORRECTION =       4.1176E-05       FLOW-CORRECTION =       3.4256E-07                     
                 SFT =           0.0000                   SFT =           0.0000     SFR-1           

           TOTAL OUT =       10368.0000             TOTAL OUT =          43.2000

            IN - OUT =       4.5788E-06              IN - OUT =       1.6504E-08

 PERCENT DISCREPANCY =           0.00     PERCENT DISCREPANCY =           0.00




         TIME SUMMARY AT END OF TIME STEP   24 IN STRESS PERIOD    1
                    SECONDS     MINUTES      HOURS       DAYS        YEARS
                    -----------------------------------------------------------
   TIME STEP LENGTH 8.64000E+05  14400.      240.00      10.000     2.73785E-02
 STRESS PERIOD TIME 2.07360E+07 3.45600E+05  5760.0      240.00     0.65708    
         TOTAL TIME 2.07360E+07 3.45600E+05  5760.0      240.00     0.65708    


end timestep


start timestep kper="1" kstp="25" mode="normal"


 FMI SETTING BUDGET TERMS FOR KSTP 25 AND KPER 1 TO BUDGET FILE TERMS FROM KSTP 1 AND KPER 1

 FMI SETTING HEAD FOR KSTP 25 AND KPER 1 TO BINARY FILE HEADS FROM KSTP 1 AND KPER 1

 SFR-1 SETTING BUDGET TERMS FOR KSTP 25 AND KPER 1 TO BUDGET FILE TERMS FROM KSTP 1 AND KPER 1

 SFT PACKAGE (SFR-1) FLOW RATES   PERIOD      1   STEP       25
 ----------------------------------------------------------------------------------------
   NUMBER   CELLID                    RATE       NAME                                    
 ----------------------------------------------------------------------------------------
     1      (1,1,169)             21.929568      SFTREACH1                               
     2      (1,1,170)             21.270432      SFTREACH2                               
     3      (1,1,171)             0.0000000      SFTREACH3                               
     4      (1,1,172)             0.0000000      SFTREACH4                               
     5      (1,1,173)             0.0000000      SFTREACH5                               
     6      (1,1,174)             0.0000000      SFTREACH6                               
     7      (1,1,175)             0.0000000      SFTREACH7                               
     8      (1,1,176)             0.0000000      SFTREACH8                               
     9      (1,1,177)             0.0000000      SFTREACH9                               
     10     (1,1,178)             0.0000000      SFTREACH10                              
     11     (1,1,179)             0.0000000      SFTREACH11                              
     12     (1,1,180)             0.0000000      SFTREACH12                              
     13     (1,1,181)             0.0000000      SFTREACH13                              
     14     (1,1,182)             0.0000000      SFTREACH14                              
     15     (1,1,183)             0.0000000      SFTREACH15                              
     16     (1,1,184)             0.0000000      SFTREACH16                              
     17     (1,1,185)             0.0000000      SFTREACH17                              
     18     (1,1,186)             0.0000000      SFTREACH18                              
     19     (1,1,187)             0.0000000      SFTREACH19                              
     20     (1,1,188)             0.0000000      SFTREACH20                              
     21     (1,1,189)             0.0000000      SFTREACH21                              
     22     (1,1,190)             0.0000000      SFTREACH22                              
     23     (1,1,191)             0.0000000      SFTREACH23                              
     24     (1,1,192)             0.0000000      SFTREACH24                              
 ----------------------------------------------------------------------------------------




 SFR-1 PACKAGE - SUMMARY OF FLOWS FOR EACH CONTROL VOLUME   PERIOD      1   STEP       25
 ----------------------------------------------------------------------------------------------------------------------------------------------------------------------
                                                                                                                                                             PERCENT   
   NUMBER      INFLOW      OUTFLOW        GWF        RAINFALL   EVAPORATION     RUNOFF     EXT INFLOW  EXT OUTFLOW    STORAGE      CONSTANT     IN - OUT    DIFFERENCE 
 ----------------------------------------------------------------------------------------------------------------------------------------------------------------------
     1       0.0000      -21.270      -21.930       0.0000       0.0000       0.0000       43.200       0.0000       0.0000       0.0000      -7.10543E-15 -1.64477E-14
     2       21.270       0.0000      -21.270       0.0000       0.0000       0.0000       0.0000       0.0000       0.0000       0.0000       3.55271E-15  1.67026E-14
     3       0.0000       0.0000       0.0000       0.0000       0.0000       0.0000       0.0000       0.0000       0.0000       0.0000       0.0000       0.0000     
     4       0.0000       0.0000       0.0000       0.0000       0.0000       0.0000       0.0000       0.0000       0.0000       0.0000       0.0000       0.0000     
     5       0.0000       0.0000       0.0000       0.0000       0.0000       0.0000       0.0000       0.0000       0.0000       0.0000       0.0000       0.0000     
     6       0.0000       0.0000       0.0000       0.0000       0.0000       0.0000       0.0000       0.0000       0.0000       0.0000       0.0000       0.0000     
     7       0.0000       0.0000       0.0000       0.0000       0.0000       0.0000       0.0000       0.0000       0.0000       0.0000       0.0000       0.0000     
     8       0.0000       0.0000       0.0000       0.0000       0.0000       0.0000       0.0000       0.0000       0.0000       0.0000       0.0000       0.0000     
     9       0.0000       0.0000       0.0000       0.0000       0.0000       0.0000       0.0000       0.0000       0.0000       0.0000       0.0000       0.0000     
     10      0.0000       0.0000       0.0000       0.0000       0.0000       0.0000       0.0000       0.0000       0.0000       0.0000       0.0000       0.0000     
     11      0.0000       0.0000       0.0000       0.0000       0.0000       0.0000       0.0000       0.0000       0.0000       0.0000       0.0000       0.0000     
     12      0.0000       0.0000       0.0000       0.0000       0.0000       0.0000       0.0000       0.0000       0.0000       0.0000       0.0000       0.0000     
     13      0.0000       0.0000       0.0000       0.0000       0.0000       0.0000       0.0000       0.0000       0.0000       0.0000       0.0000       0.0000     
     14      0.0000       0.0000       0.0000       0.0000       0.0000       0.0000       0.0000       0.0000       0.0000       0.0000       0.0000       0.0000     
     15      0.0000       0.0000       0.0000       0.0000       0.0000       0.0000       0.0000       0.0000       0.0000       0.0000       0.0000       0.0000     
     16      0.0000       0.0000       0.0000       0.0000       0.0000       0.0000       0.0000       0.0000       0.0000       0.0000       0.0000       0.0000     
     17      0.0000       0.0000       0.0000       0.0000       0.0000       0.0000       0.0000       0.0000       0.0000       0.0000       0.0000       0.0000     
     18      0.0000       0.0000       0.0000       0.0000       0.0000       0.0000       0.0000       0.0000       0.0000       0.0000       0.0000       0.0000     
     19      0.0000       0.0000       0.0000       0.0000       0.0000       0.0000       0.0000       0.0000       0.0000       0.0000       0.0000       0.0000     
     20      0.0000       0.0000       0.0000       0.0000       0.0000       0.0000       0.0000       0.0000       0.0000       0.0000       0.0000       0.0000     
     21      0.0000       0.0000       0.0000       0.0000       0.0000       0.0000       0.0000       0.0000       0.0000       0.0000       0.0000       0.0000     
     22      0.0000       0.0000       0.0000       0.0000       0.0000       0.0000       0.0000       0.0000       0.0000       0.0000       0.0000       0.0000     
     23      0.0000       0.0000       0.0000       0.0000       0.0000       0.0000       0.0000       0.0000       0.0000       0.0000       0.0000       0.0000     
     24      0.0000       0.0000       0.0000       0.0000       0.0000       0.0000       0.0000       0.0000       0.0000       0.0000       0.0000       0.0000     
 ----------------------------------------------------------------------------------------------------------------------------------------------------------------------




  SFR-1 BUDGET FOR ENTIRE MODEL AT END OF TIME STEP   25, STRESS PERIOD   1
  ------------------------------------------------------------------------------

     CUMULATIVE SFR-1      M       RATES FOR THIS TIME STEP      M/T
     ------------------                 ------------------------

           IN:                                      IN:
           ---                                      ---
                 GWF =           0.0000                   GWF =           0.0000
            RAINFALL =           0.0000              RAINFALL =           0.0000
         EVAPORATION =           0.0000           EVAPORATION =           0.0000
              RUNOFF =           0.0000                RUNOFF =           0.0000
          EXT-INFLOW =       10800.0000            EXT-INFLOW =          43.2000
         EXT-OUTFLOW =           0.0000           EXT-OUTFLOW =           0.0000
             STORAGE =           0.0000               STORAGE =           0.0000
            CONSTANT =           0.0000              CONSTANT =           0.0000

            TOTAL IN =       10800.0000              TOTAL IN =          43.2000

          OUT:                                     OUT:
          ----                                     ----
                 GWF =       10800.0000                   GWF =          43.2000
            RAINFALL =           0.0000              RAINFALL =           0.0000
         EVAPORATION =           0.0000           EVAPORATION =           0.0000
              RUNOFF =           0.0000                RUNOFF =           0.0000
          EXT-INFLOW =           0.0000            EXT-INFLOW =           0.0000
         EXT-OUTFLOW =           0.0000           EXT-OUTFLOW =           0.0000
             STORAGE =       2.7756E-16               STORAGE =           0.0000
            CONSTANT =           0.0000              CONSTANT =           0.0000

           TOTAL OUT =       10800.0000             TOTAL OUT =          43.2000

            IN - OUT =           0.0000              IN - OUT =           0.0000

 PERCENT DISCREPANCY =           0.00     PERCENT DISCREPANCY =           0.00



  MASS BUDGET FOR ENTIRE MODEL AT END OF TIME STEP   25, STRESS PERIOD   1
  ---------------------------------------------------------------------------------------------------

     CUMULATIVE MASS      M       RATES FOR THIS TIME STEP      M/T          PACKAGE NAME    
     ------------------                 ------------------------                     ----------------

           IN:                                      IN:
           ---                                      ---
     STORAGE-AQUEOUS =       3.5949E-14       STORAGE-AQUEOUS =       5.5582E-16     MST             
               RCH-1 =           0.0000                 RCH-1 =           0.0000     SSM             
               CHD-1 =           0.0000                 CHD-1 =           0.0000     SSM             
     FLOW-CORRECTION =       2.5399E-07       FLOW-CORRECTION =       1.0836E-09                     
                 SFT =       10800.0000                   SFT =          43.2000     SFR-1           

            TOTAL IN =       10800.0000              TOTAL IN =          43.2000

          OUT:                                     OUT:
          ----                                     ----
     STORAGE-AQUEOUS =       10800.0000       STORAGE-AQUEOUS =          43.2000     MST             
               RCH-1 =           0.0000                 RCH-1 =           0.0000     SSM             
               CHD-1 =       2.5588E-86                 CHD-1 =       2.2030E-87     SSM             
     FLOW-CORRECTION =       4.4751E-05       FLOW-CORRECTION =       3.5751E-07                     
                 SFT =           0.0000                   SFT =           0.0000     SFR-1           

           TOTAL OUT =       10800.0000             TOTAL OUT =          43.2000

            IN - OUT =       4.7411E-06              IN - OUT =       1.6221E-08

 PERCENT DISCREPANCY =           0.00     PERCENT DISCREPANCY =           0.00




         TIME SUMMARY AT END OF TIME STEP   25 IN STRESS PERIOD    1
                    SECONDS     MINUTES      HOURS       DAYS        YEARS
                    -----------------------------------------------------------
   TIME STEP LENGTH 8.64000E+05  14400.      240.00      10.000     2.73785E-02
 STRESS PERIOD TIME 2.16000E+07 3.60000E+05  6000.0      250.00     0.68446    
         TOTAL TIME 2.16000E+07 3.60000E+05  6000.0      250.00     0.68446    


end timestep


start timestep kper="1" kstp="26" mode="normal"


 FMI SETTING BUDGET TERMS FOR KSTP 26 AND KPER 1 TO BUDGET FILE TERMS FROM KSTP 1 AND KPER 1

 FMI SETTING HEAD FOR KSTP 26 AND KPER 1 TO BINARY FILE HEADS FROM KSTP 1 AND KPER 1

 SFR-1 SETTING BUDGET TERMS FOR KSTP 26 AND KPER 1 TO BUDGET FILE TERMS FROM KSTP 1 AND KPER 1

 SFT PACKAGE (SFR-1) FLOW RATES   PERIOD      1   STEP       26
 ----------------------------------------------------------------------------------------
   NUMBER   CELLID                    RATE       NAME                                    
 ----------------------------------------------------------------------------------------
     1      (1,1,169)             21.929568      SFTREACH1                               
     2      (1,1,170)             21.270432      SFTREACH2                               
     3      (1,1,171)             0.0000000      SFTREACH3                               
     4      (1,1,172)             0.0000000      SFTREACH4                               
     5      (1,1,173)             0.0000000      SFTREACH5                               
     6      (1,1,174)             0.0000000      SFTREACH6                               
     7      (1,1,175)             0.0000000      SFTREACH7                               
     8      (1,1,176)             0.0000000      SFTREACH8                               
     9      (1,1,177)             0.0000000      SFTREACH9                               
     10     (1,1,178)             0.0000000      SFTREACH10                              
     11     (1,1,179)             0.0000000      SFTREACH11                              
     12     (1,1,180)             0.0000000      SFTREACH12                              
     13     (1,1,181)             0.0000000      SFTREACH13                              
     14     (1,1,182)             0.0000000      SFTREACH14                              
     15     (1,1,183)             0.0000000      SFTREACH15                              
     16     (1,1,184)             0.0000000      SFTREACH16                              
     17     (1,1,185)             0.0000000      SFTREACH17                              
     18     (1,1,186)             0.0000000      SFTREACH18                              
     19     (1,1,187)             0.0000000      SFTREACH19                              
     20     (1,1,188)             0.0000000      SFTREACH20                              
     21     (1,1,189)             0.0000000      SFTREACH21                              
     22     (1,1,190)             0.0000000      SFTREACH22                              
     23     (1,1,191)             0.0000000      SFTREACH23                              
     24     (1,1,192)             0.0000000      SFTREACH24                              
 ----------------------------------------------------------------------------------------




 SFR-1 PACKAGE - SUMMARY OF FLOWS FOR EACH CONTROL VOLUME   PERIOD      1   STEP       26
 ----------------------------------------------------------------------------------------------------------------------------------------------------------------------
                                                                                                                                                             PERCENT   
   NUMBER      INFLOW      OUTFLOW        GWF        RAINFALL   EVAPORATION     RUNOFF     EXT INFLOW  EXT OUTFLOW    STORAGE      CONSTANT     IN - OUT    DIFFERENCE 
 ----------------------------------------------------------------------------------------------------------------------------------------------------------------------
     1       0.0000      -21.270      -21.930       0.0000       0.0000       0.0000       43.200       0.0000       0.0000       0.0000      -7.10543E-15 -1.64477E-14
     2       21.270       0.0000      -21.270       0.0000       0.0000       0.0000       0.0000       0.0000       0.0000       0.0000       3.55271E-15  1.67026E-14
     3       0.0000       0.0000       0.0000       0.0000       0.0000       0.0000       0.0000       0.0000       0.0000       0.0000       0.0000       0.0000     
     4       0.0000       0.0000       0.0000       0.0000       0.0000       0.0000       0.0000       0.0000       0.0000       0.0000       0.0000       0.0000     
     5       0.0000       0.0000       0.0000       0.0000       0.0000       0.0000       0.0000       0.0000       0.0000       0.0000       0.0000       0.0000     
     6       0.0000       0.0000       0.0000       0.0000       0.0000       0.0000       0.0000       0.0000       0.0000       0.0000       0.0000       0.0000     
     7       0.0000       0.0000       0.0000       0.0000       0.0000       0.0000       0.0000       0.0000       0.0000       0.0000       0.0000       0.0000     
     8       0.0000       0.0000       0.0000       0.0000       0.0000       0.0000       0.0000       0.0000       0.0000       0.0000       0.0000       0.0000     
     9       0.0000       0.0000       0.0000       0.0000       0.0000       0.0000       0.0000       0.0000       0.0000       0.0000       0.0000       0.0000     
     10      0.0000       0.0000       0.0000       0.0000       0.0000       0.0000       0.0000       0.0000       0.0000       0.0000       0.0000       0.0000     
     11      0.0000       0.0000       0.0000       0.0000       0.0000       0.0000       0.0000       0.0000       0.0000       0.0000       0.0000       0.0000     
     12      0.0000       0.0000       0.0000       0.0000       0.0000       0.0000       0.0000       0.0000       0.0000       0.0000       0.0000       0.0000     
     13      0.0000       0.0000       0.0000       0.0000       0.0000       0.0000       0.0000       0.0000       0.0000       0.0000       0.0000       0.0000     
     14      0.0000       0.0000       0.0000       0.0000       0.0000       0.0000       0.0000       0.0000       0.0000       0.0000       0.0000       0.0000     
     15      0.0000       0.0000       0.0000       0.0000       0.0000       0.0000       0.0000       0.0000       0.0000       0.0000       0.0000       0.0000     
     16      0.0000       0.0000       0.0000       0.0000       0.0000       0.0000       0.0000       0.0000       0.0000       0.0000       0.0000       0.0000     
     17      0.0000       0.0000       0.0000       0.0000       0.0000       0.0000       0.0000       0.0000       0.0000       0.0000       0.0000       0.0000     
     18      0.0000       0.0000       0.0000       0.0000       0.0000       0.0000       0.0000       0.0000       0.0000       0.0000       0.0000       0.0000     
     19      0.0000       0.0000       0.0000       0.0000       0.0000       0.0000       0.0000       0.0000       0.0000       0.0000       0.0000       0.0000     
     20      0.0000       0.0000       0.0000       0.0000       0.0000       0.0000       0.0000       0.0000       0.0000       0.0000       0.0000       0.0000     
     21      0.0000       0.0000       0.0000       0.0000       0.0000       0.0000       0.0000       0.0000       0.0000       0.0000       0.0000       0.0000     
     22      0.0000       0.0000       0.0000       0.0000       0.0000       0.0000       0.0000       0.0000       0.0000       0.0000       0.0000       0.0000     
     23      0.0000       0.0000       0.0000       0.0000       0.0000       0.0000       0.0000       0.0000       0.0000       0.0000       0.0000       0.0000     
     24      0.0000       0.0000       0.0000       0.0000       0.0000       0.0000       0.0000       0.0000       0.0000       0.0000       0.0000       0.0000     
 ----------------------------------------------------------------------------------------------------------------------------------------------------------------------




  SFR-1 BUDGET FOR ENTIRE MODEL AT END OF TIME STEP   26, STRESS PERIOD   1
  ------------------------------------------------------------------------------

     CUMULATIVE SFR-1      M       RATES FOR THIS TIME STEP      M/T
     ------------------                 ------------------------

           IN:                                      IN:
           ---                                      ---
                 GWF =           0.0000                   GWF =           0.0000
            RAINFALL =           0.0000              RAINFALL =           0.0000
         EVAPORATION =           0.0000           EVAPORATION =           0.0000
              RUNOFF =           0.0000                RUNOFF =           0.0000
          EXT-INFLOW =       11232.0000            EXT-INFLOW =          43.2000
         EXT-OUTFLOW =           0.0000           EXT-OUTFLOW =           0.0000
             STORAGE =           0.0000               STORAGE =           0.0000
            CONSTANT =           0.0000              CONSTANT =           0.0000

            TOTAL IN =       11232.0000              TOTAL IN =          43.2000

          OUT:                                     OUT:
          ----                                     ----
                 GWF =       11232.0000                   GWF =          43.2000
            RAINFALL =           0.0000              RAINFALL =           0.0000
         EVAPORATION =           0.0000           EVAPORATION =           0.0000
              RUNOFF =           0.0000                RUNOFF =           0.0000
          EXT-INFLOW =           0.0000            EXT-INFLOW =           0.0000
         EXT-OUTFLOW =           0.0000           EXT-OUTFLOW =           0.0000
             STORAGE =       2.7756E-16               STORAGE =           0.0000
            CONSTANT =           0.0000              CONSTANT =           0.0000

           TOTAL OUT =       11232.0000             TOTAL OUT =          43.2000

            IN - OUT =           0.0000              IN - OUT =           0.0000

 PERCENT DISCREPANCY =           0.00     PERCENT DISCREPANCY =           0.00



  MASS BUDGET FOR ENTIRE MODEL AT END OF TIME STEP   26, STRESS PERIOD   1
  ---------------------------------------------------------------------------------------------------

     CUMULATIVE MASS      M       RATES FOR THIS TIME STEP      M/T          PACKAGE NAME    
     ------------------                 ------------------------                     ----------------

           IN:                                      IN:
           ---                                      ---
     STORAGE-AQUEOUS =       4.1507E-14       STORAGE-AQUEOUS =       5.5582E-16     MST             
               RCH-1 =           0.0000                 RCH-1 =           0.0000     SSM             
               CHD-1 =           0.0000                 CHD-1 =           0.0000     SSM             
     FLOW-CORRECTION =       2.6506E-07       FLOW-CORRECTION =       1.1067E-09                     
                 SFT =       11232.0000                   SFT =          43.2000     SFR-1           

            TOTAL IN =       11232.0000              TOTAL IN =          43.2000

          OUT:                                     OUT:
          ----                                     ----
     STORAGE-AQUEOUS =       11231.9999       STORAGE-AQUEOUS =          43.2000     MST             
               RCH-1 =           0.0000                 RCH-1 =           0.0000     SSM             
               CHD-1 =       1.7737E-85                 CHD-1 =       1.5178E-86     SSM             
     FLOW-CORRECTION =       4.8474E-05       FLOW-CORRECTION =       3.7232E-07                     
                 SFT =           0.0000                   SFT =           0.0000     SFR-1           

           TOTAL OUT =       11232.0000             TOTAL OUT =          43.2000

            IN - OUT =       4.9011E-06              IN - OUT =       1.6003E-08

 PERCENT DISCREPANCY =           0.00     PERCENT DISCREPANCY =           0.00




         TIME SUMMARY AT END OF TIME STEP   26 IN STRESS PERIOD    1
                    SECONDS     MINUTES      HOURS       DAYS        YEARS
                    -----------------------------------------------------------
   TIME STEP LENGTH 8.64000E+05  14400.      240.00      10.000     2.73785E-02
 STRESS PERIOD TIME 2.24640E+07 3.74400E+05  6240.0      260.00     0.71184    
         TOTAL TIME 2.24640E+07 3.74400E+05  6240.0      260.00     0.71184    


end timestep


start timestep kper="1" kstp="27" mode="normal"


 FMI SETTING BUDGET TERMS FOR KSTP 27 AND KPER 1 TO BUDGET FILE TERMS FROM KSTP 1 AND KPER 1

 FMI SETTING HEAD FOR KSTP 27 AND KPER 1 TO BINARY FILE HEADS FROM KSTP 1 AND KPER 1

 SFR-1 SETTING BUDGET TERMS FOR KSTP 27 AND KPER 1 TO BUDGET FILE TERMS FROM KSTP 1 AND KPER 1

 SFT PACKAGE (SFR-1) FLOW RATES   PERIOD      1   STEP       27
 ----------------------------------------------------------------------------------------
   NUMBER   CELLID                    RATE       NAME                                    
 ----------------------------------------------------------------------------------------
     1      (1,1,169)             21.929568      SFTREACH1                               
     2      (1,1,170)             21.270432      SFTREACH2                               
     3      (1,1,171)             0.0000000      SFTREACH3                               
     4      (1,1,172)             0.0000000      SFTREACH4                               
     5      (1,1,173)             0.0000000      SFTREACH5                               
     6      (1,1,174)             0.0000000      SFTREACH6                               
     7      (1,1,175)             0.0000000      SFTREACH7                               
     8      (1,1,176)             0.0000000      SFTREACH8                               
     9      (1,1,177)             0.0000000      SFTREACH9                               
     10     (1,1,178)             0.0000000      SFTREACH10                              
     11     (1,1,179)             0.0000000      SFTREACH11                              
     12     (1,1,180)             0.0000000      SFTREACH12                              
     13     (1,1,181)             0.0000000      SFTREACH13                              
     14     (1,1,182)             0.0000000      SFTREACH14                              
     15     (1,1,183)             0.0000000      SFTREACH15                              
     16     (1,1,184)             0.0000000      SFTREACH16                              
     17     (1,1,185)             0.0000000      SFTREACH17                              
     18     (1,1,186)             0.0000000      SFTREACH18                              
     19     (1,1,187)             0.0000000      SFTREACH19                              
     20     (1,1,188)             0.0000000      SFTREACH20                              
     21     (1,1,189)             0.0000000      SFTREACH21                              
     22     (1,1,190)             0.0000000      SFTREACH22                              
     23     (1,1,191)             0.0000000      SFTREACH23                              
     24     (1,1,192)             0.0000000      SFTREACH24                              
 ----------------------------------------------------------------------------------------




 SFR-1 PACKAGE - SUMMARY OF FLOWS FOR EACH CONTROL VOLUME   PERIOD      1   STEP       27
 ----------------------------------------------------------------------------------------------------------------------------------------------------------------------
                                                                                                                                                             PERCENT   
   NUMBER      INFLOW      OUTFLOW        GWF        RAINFALL   EVAPORATION     RUNOFF     EXT INFLOW  EXT OUTFLOW    STORAGE      CONSTANT     IN - OUT    DIFFERENCE 
 ----------------------------------------------------------------------------------------------------------------------------------------------------------------------
     1       0.0000      -21.270      -21.930       0.0000       0.0000       0.0000       43.200       0.0000       0.0000       0.0000      -7.10543E-15 -1.64477E-14
     2       21.270       0.0000      -21.270       0.0000       0.0000       0.0000       0.0000       0.0000       0.0000       0.0000       3.55271E-15  1.67026E-14
     3       0.0000       0.0000       0.0000       0.0000       0.0000       0.0000       0.0000       0.0000       0.0000       0.0000       0.0000       0.0000     
     4       0.0000       0.0000       0.0000       0.0000       0.0000       0.0000       0.0000       0.0000       0.0000       0.0000       0.0000       0.0000     
     5       0.0000       0.0000       0.0000       0.0000       0.0000       0.0000       0.0000       0.0000       0.0000       0.0000       0.0000       0.0000     
     6       0.0000       0.0000       0.0000       0.0000       0.0000       0.0000       0.0000       0.0000       0.0000       0.0000       0.0000       0.0000     
     7       0.0000       0.0000       0.0000       0.0000       0.0000       0.0000       0.0000       0.0000       0.0000       0.0000       0.0000       0.0000     
     8       0.0000       0.0000       0.0000       0.0000       0.0000       0.0000       0.0000       0.0000       0.0000       0.0000       0.0000       0.0000     
     9       0.0000       0.0000       0.0000       0.0000       0.0000       0.0000       0.0000       0.0000       0.0000       0.0000       0.0000       0.0000     
     10      0.0000       0.0000       0.0000       0.0000       0.0000       0.0000       0.0000       0.0000       0.0000       0.0000       0.0000       0.0000     
     11      0.0000       0.0000       0.0000       0.0000       0.0000       0.0000       0.0000       0.0000       0.0000       0.0000       0.0000       0.0000     
     12      0.0000       0.0000       0.0000       0.0000       0.0000       0.0000       0.0000       0.0000       0.0000       0.0000       0.0000       0.0000     
     13      0.0000       0.0000       0.0000       0.0000       0.0000       0.0000       0.0000       0.0000       0.0000       0.0000       0.0000       0.0000     
     14      0.0000       0.0000       0.0000       0.0000       0.0000       0.0000       0.0000       0.0000       0.0000       0.0000       0.0000       0.0000     
     15      0.0000       0.0000       0.0000       0.0000       0.0000       0.0000       0.0000       0.0000       0.0000       0.0000       0.0000       0.0000     
     16      0.0000       0.0000       0.0000       0.0000       0.0000       0.0000       0.0000       0.0000       0.0000       0.0000       0.0000       0.0000     
     17      0.0000       0.0000       0.0000       0.0000       0.0000       0.0000       0.0000       0.0000       0.0000       0.0000       0.0000       0.0000     
     18      0.0000       0.0000       0.0000       0.0000       0.0000       0.0000       0.0000       0.0000       0.0000       0.0000       0.0000       0.0000     
     19      0.0000       0.0000       0.0000       0.0000       0.0000       0.0000       0.0000       0.0000       0.0000       0.0000       0.0000       0.0000     
     20      0.0000       0.0000       0.0000       0.0000       0.0000       0.0000       0.0000       0.0000       0.0000       0.0000       0.0000       0.0000     
     21      0.0000       0.0000       0.0000       0.0000       0.0000       0.0000       0.0000       0.0000       0.0000       0.0000       0.0000       0.0000     
     22      0.0000       0.0000       0.0000       0.0000       0.0000       0.0000       0.0000       0.0000       0.0000       0.0000       0.0000       0.0000     
     23      0.0000       0.0000       0.0000       0.0000       0.0000       0.0000       0.0000       0.0000       0.0000       0.0000       0.0000       0.0000     
     24      0.0000       0.0000       0.0000       0.0000       0.0000       0.0000       0.0000       0.0000       0.0000       0.0000       0.0000       0.0000     
 ----------------------------------------------------------------------------------------------------------------------------------------------------------------------




  SFR-1 BUDGET FOR ENTIRE MODEL AT END OF TIME STEP   27, STRESS PERIOD   1
  ------------------------------------------------------------------------------

     CUMULATIVE SFR-1      M       RATES FOR THIS TIME STEP      M/T
     ------------------                 ------------------------

           IN:                                      IN:
           ---                                      ---
                 GWF =           0.0000                   GWF =           0.0000
            RAINFALL =           0.0000              RAINFALL =           0.0000
         EVAPORATION =           0.0000           EVAPORATION =           0.0000
              RUNOFF =           0.0000                RUNOFF =           0.0000
          EXT-INFLOW =       11664.0000            EXT-INFLOW =          43.2000
         EXT-OUTFLOW =           0.0000           EXT-OUTFLOW =           0.0000
             STORAGE =           0.0000               STORAGE =           0.0000
            CONSTANT =           0.0000              CONSTANT =           0.0000

            TOTAL IN =       11664.0000              TOTAL IN =          43.2000

          OUT:                                     OUT:
          ----                                     ----
                 GWF =       11664.0000                   GWF =          43.2000
            RAINFALL =           0.0000              RAINFALL =           0.0000
         EVAPORATION =           0.0000           EVAPORATION =           0.0000
              RUNOFF =           0.0000                RUNOFF =           0.0000
          EXT-INFLOW =           0.0000            EXT-INFLOW =           0.0000
         EXT-OUTFLOW =           0.0000           EXT-OUTFLOW =           0.0000
             STORAGE =       2.7756E-16               STORAGE =           0.0000
            CONSTANT =           0.0000              CONSTANT =           0.0000

           TOTAL OUT =       11664.0000             TOTAL OUT =          43.2000

            IN - OUT =           0.0000              IN - OUT =           0.0000

 PERCENT DISCREPANCY =           0.00     PERCENT DISCREPANCY =           0.00



  MASS BUDGET FOR ENTIRE MODEL AT END OF TIME STEP   27, STRESS PERIOD   1
  ---------------------------------------------------------------------------------------------------

     CUMULATIVE MASS      M       RATES FOR THIS TIME STEP      M/T          PACKAGE NAME    
     ------------------                 ------------------------                     ----------------

           IN:                                      IN:
           ---                                      ---
     STORAGE-AQUEOUS =       4.7066E-14       STORAGE-AQUEOUS =       5.5582E-16     MST             
               RCH-1 =           0.0000                 RCH-1 =           0.0000     SSM             
               CHD-1 =           0.0000                 CHD-1 =           0.0000     SSM             
     FLOW-CORRECTION =       2.7641E-07       FLOW-CORRECTION =       1.1354E-09                     
                 SFT =       11664.0000                   SFT =          43.2000     SFR-1           

            TOTAL IN =       11664.0000              TOTAL IN =          43.2000

          OUT:                                     OUT:
          ----                                     ----
     STORAGE-AQUEOUS =       11663.9999       STORAGE-AQUEOUS =          43.2000     MST             
               RCH-1 =           0.0000                 RCH-1 =           0.0000     SSM             
               CHD-1 =       1.1869E-84                 CHD-1 =       1.0096E-85     SSM             
     FLOW-CORRECTION =       5.2344E-05       FLOW-CORRECTION =       3.8696E-07                     
                 SFT =           0.0000                   SFT =           0.0000     SFR-1           

           TOTAL OUT =       11664.0000             TOTAL OUT =          43.2000

            IN - OUT =       5.0594E-06              IN - OUT =       1.5833E-08

 PERCENT DISCREPANCY =           0.00     PERCENT DISCREPANCY =           0.00




         TIME SUMMARY AT END OF TIME STEP   27 IN STRESS PERIOD    1
                    SECONDS     MINUTES      HOURS       DAYS        YEARS
                    -----------------------------------------------------------
   TIME STEP LENGTH 8.64000E+05  14400.      240.00      10.000     2.73785E-02
 STRESS PERIOD TIME 2.33280E+07 3.88800E+05  6480.0      270.00     0.73922    
         TOTAL TIME 2.33280E+07 3.88800E+05  6480.0      270.00     0.73922    


end timestep


start timestep kper="1" kstp="28" mode="normal"


 FMI SETTING BUDGET TERMS FOR KSTP 28 AND KPER 1 TO BUDGET FILE TERMS FROM KSTP 1 AND KPER 1

 FMI SETTING HEAD FOR KSTP 28 AND KPER 1 TO BINARY FILE HEADS FROM KSTP 1 AND KPER 1

 SFR-1 SETTING BUDGET TERMS FOR KSTP 28 AND KPER 1 TO BUDGET FILE TERMS FROM KSTP 1 AND KPER 1

 SFT PACKAGE (SFR-1) FLOW RATES   PERIOD      1   STEP       28
 ----------------------------------------------------------------------------------------
   NUMBER   CELLID                    RATE       NAME                                    
 ----------------------------------------------------------------------------------------
     1      (1,1,169)             21.929568      SFTREACH1                               
     2      (1,1,170)             21.270432      SFTREACH2                               
     3      (1,1,171)             0.0000000      SFTREACH3                               
     4      (1,1,172)             0.0000000      SFTREACH4                               
     5      (1,1,173)             0.0000000      SFTREACH5                               
     6      (1,1,174)             0.0000000      SFTREACH6                               
     7      (1,1,175)             0.0000000      SFTREACH7                               
     8      (1,1,176)             0.0000000      SFTREACH8                               
     9      (1,1,177)             0.0000000      SFTREACH9                               
     10     (1,1,178)             0.0000000      SFTREACH10                              
     11     (1,1,179)             0.0000000      SFTREACH11                              
     12     (1,1,180)             0.0000000      SFTREACH12                              
     13     (1,1,181)             0.0000000      SFTREACH13                              
     14     (1,1,182)             0.0000000      SFTREACH14                              
     15     (1,1,183)             0.0000000      SFTREACH15                              
     16     (1,1,184)             0.0000000      SFTREACH16                              
     17     (1,1,185)             0.0000000      SFTREACH17                              
     18     (1,1,186)             0.0000000      SFTREACH18                              
     19     (1,1,187)             0.0000000      SFTREACH19                              
     20     (1,1,188)             0.0000000      SFTREACH20                              
     21     (1,1,189)             0.0000000      SFTREACH21                              
     22     (1,1,190)             0.0000000      SFTREACH22                              
     23     (1,1,191)             0.0000000      SFTREACH23                              
     24     (1,1,192)             0.0000000      SFTREACH24                              
 ----------------------------------------------------------------------------------------




 SFR-1 PACKAGE - SUMMARY OF FLOWS FOR EACH CONTROL VOLUME   PERIOD      1   STEP       28
 ----------------------------------------------------------------------------------------------------------------------------------------------------------------------
                                                                                                                                                             PERCENT   
   NUMBER      INFLOW      OUTFLOW        GWF        RAINFALL   EVAPORATION     RUNOFF     EXT INFLOW  EXT OUTFLOW    STORAGE      CONSTANT     IN - OUT    DIFFERENCE 
 ----------------------------------------------------------------------------------------------------------------------------------------------------------------------
     1       0.0000      -21.270      -21.930       0.0000       0.0000       0.0000       43.200       0.0000       0.0000       0.0000      -7.10543E-15 -1.64477E-14
     2       21.270       0.0000      -21.270       0.0000       0.0000       0.0000       0.0000       0.0000       0.0000       0.0000       3.55271E-15  1.67026E-14
     3       0.0000       0.0000       0.0000       0.0000       0.0000       0.0000       0.0000       0.0000       0.0000       0.0000       0.0000       0.0000     
     4       0.0000       0.0000       0.0000       0.0000       0.0000       0.0000       0.0000       0.0000       0.0000       0.0000       0.0000       0.0000     
     5       0.0000       0.0000       0.0000       0.0000       0.0000       0.0000       0.0000       0.0000       0.0000       0.0000       0.0000       0.0000     
     6       0.0000       0.0000       0.0000       0.0000       0.0000       0.0000       0.0000       0.0000       0.0000       0.0000       0.0000       0.0000     
     7       0.0000       0.0000       0.0000       0.0000       0.0000       0.0000       0.0000       0.0000       0.0000       0.0000       0.0000       0.0000     
     8       0.0000       0.0000       0.0000       0.0000       0.0000       0.0000       0.0000       0.0000       0.0000       0.0000       0.0000       0.0000     
     9       0.0000       0.0000       0.0000       0.0000       0.0000       0.0000       0.0000       0.0000       0.0000       0.0000       0.0000       0.0000     
     10      0.0000       0.0000       0.0000       0.0000       0.0000       0.0000       0.0000       0.0000       0.0000       0.0000       0.0000       0.0000     
     11      0.0000       0.0000       0.0000       0.0000       0.0000       0.0000       0.0000       0.0000       0.0000       0.0000       0.0000       0.0000     
     12      0.0000       0.0000       0.0000       0.0000       0.0000       0.0000       0.0000       0.0000       0.0000       0.0000       0.0000       0.0000     
     13      0.0000       0.0000       0.0000       0.0000       0.0000       0.0000       0.0000       0.0000       0.0000       0.0000       0.0000       0.0000     
     14      0.0000       0.0000       0.0000       0.0000       0.0000       0.0000       0.0000       0.0000       0.0000       0.0000       0.0000       0.0000     
     15      0.0000       0.0000       0.0000       0.0000       0.0000       0.0000       0.0000       0.0000       0.0000       0.0000       0.0000       0.0000     
     16      0.0000       0.0000       0.0000       0.0000       0.0000       0.0000       0.0000       0.0000       0.0000       0.0000       0.0000       0.0000     
     17      0.0000       0.0000       0.0000       0.0000       0.0000       0.0000       0.0000       0.0000       0.0000       0.0000       0.0000       0.0000     
     18      0.0000       0.0000       0.0000       0.0000       0.0000       0.0000       0.0000       0.0000       0.0000       0.0000       0.0000       0.0000     
     19      0.0000       0.0000       0.0000       0.0000       0.0000       0.0000       0.0000       0.0000       0.0000       0.0000       0.0000       0.0000     
     20      0.0000       0.0000       0.0000       0.0000       0.0000       0.0000       0.0000       0.0000       0.0000       0.0000       0.0000       0.0000     
     21      0.0000       0.0000       0.0000       0.0000       0.0000       0.0000       0.0000       0.0000       0.0000       0.0000       0.0000       0.0000     
     22      0.0000       0.0000       0.0000       0.0000       0.0000       0.0000       0.0000       0.0000       0.0000       0.0000       0.0000       0.0000     
     23      0.0000       0.0000       0.0000       0.0000       0.0000       0.0000       0.0000       0.0000       0.0000       0.0000       0.0000       0.0000     
     24      0.0000       0.0000       0.0000       0.0000       0.0000       0.0000       0.0000       0.0000       0.0000       0.0000       0.0000       0.0000     
 ----------------------------------------------------------------------------------------------------------------------------------------------------------------------




  SFR-1 BUDGET FOR ENTIRE MODEL AT END OF TIME STEP   28, STRESS PERIOD   1
  ------------------------------------------------------------------------------

     CUMULATIVE SFR-1      M       RATES FOR THIS TIME STEP      M/T
     ------------------                 ------------------------

           IN:                                      IN:
           ---                                      ---
                 GWF =           0.0000                   GWF =           0.0000
            RAINFALL =           0.0000              RAINFALL =           0.0000
         EVAPORATION =           0.0000           EVAPORATION =           0.0000
              RUNOFF =           0.0000                RUNOFF =           0.0000
          EXT-INFLOW =       12096.0000            EXT-INFLOW =          43.2000
         EXT-OUTFLOW =           0.0000           EXT-OUTFLOW =           0.0000
             STORAGE =           0.0000               STORAGE =           0.0000
            CONSTANT =           0.0000              CONSTANT =           0.0000

            TOTAL IN =       12096.0000              TOTAL IN =          43.2000

          OUT:                                     OUT:
          ----                                     ----
                 GWF =       12096.0000                   GWF =          43.2000
            RAINFALL =           0.0000              RAINFALL =           0.0000
         EVAPORATION =           0.0000           EVAPORATION =           0.0000
              RUNOFF =           0.0000                RUNOFF =           0.0000
          EXT-INFLOW =           0.0000            EXT-INFLOW =           0.0000
         EXT-OUTFLOW =           0.0000           EXT-OUTFLOW =           0.0000
             STORAGE =       2.7756E-16               STORAGE =           0.0000
            CONSTANT =           0.0000              CONSTANT =           0.0000

           TOTAL OUT =       12096.0000             TOTAL OUT =          43.2000

            IN - OUT =           0.0000              IN - OUT =           0.0000

 PERCENT DISCREPANCY =           0.00     PERCENT DISCREPANCY =           0.00



  MASS BUDGET FOR ENTIRE MODEL AT END OF TIME STEP   28, STRESS PERIOD   1
  ---------------------------------------------------------------------------------------------------

     CUMULATIVE MASS      M       RATES FOR THIS TIME STEP      M/T          PACKAGE NAME    
     ------------------                 ------------------------                     ----------------

           IN:                                      IN:
           ---                                      ---
     STORAGE-AQUEOUS =       5.2624E-14       STORAGE-AQUEOUS =       5.5582E-16     MST             
               RCH-1 =           0.0000                 RCH-1 =           0.0000     SSM             
               CHD-1 =           0.0000                 CHD-1 =           0.0000     SSM             
     FLOW-CORRECTION =       2.8812E-07       FLOW-CORRECTION =       1.1706E-09                     
                 SFT =       12096.0000                   SFT =          43.2000     SFR-1           

            TOTAL IN =       12096.0000              TOTAL IN =          43.2000

          OUT:                                     OUT:
          ----                                     ----
     STORAGE-AQUEOUS =       12095.9999       STORAGE-AQUEOUS =          43.2000     MST             
               RCH-1 =           0.0000                 RCH-1 =           0.0000     SSM             
               CHD-1 =       7.6794E-84                 CHD-1 =       6.4925E-85     SSM             
     FLOW-CORRECTION =       5.6358E-05       FLOW-CORRECTION =       4.0141E-07                     
                 SFT =           0.0000                   SFT =           0.0000     SFR-1           

           TOTAL OUT =       12096.0000             TOTAL OUT =          43.2000

            IN - OUT =       5.2165E-06              IN - OUT =       1.5705E-08

 PERCENT DISCREPANCY =           0.00     PERCENT DISCREPANCY =           0.00




         TIME SUMMARY AT END OF TIME STEP   28 IN STRESS PERIOD    1
                    SECONDS     MINUTES      HOURS       DAYS        YEARS
                    -----------------------------------------------------------
   TIME STEP LENGTH 8.64000E+05  14400.      240.00      10.000     2.73785E-02
 STRESS PERIOD TIME 2.41920E+07 4.03200E+05  6720.0      280.00     0.76660    
         TOTAL TIME 2.41920E+07 4.03200E+05  6720.0      280.00     0.76660    


end timestep


start timestep kper="1" kstp="29" mode="normal"


 FMI SETTING BUDGET TERMS FOR KSTP 29 AND KPER 1 TO BUDGET FILE TERMS FROM KSTP 1 AND KPER 1

 FMI SETTING HEAD FOR KSTP 29 AND KPER 1 TO BINARY FILE HEADS FROM KSTP 1 AND KPER 1

 SFR-1 SETTING BUDGET TERMS FOR KSTP 29 AND KPER 1 TO BUDGET FILE TERMS FROM KSTP 1 AND KPER 1

 SFT PACKAGE (SFR-1) FLOW RATES   PERIOD      1   STEP       29
 ----------------------------------------------------------------------------------------
   NUMBER   CELLID                    RATE       NAME                                    
 ----------------------------------------------------------------------------------------
     1      (1,1,169)             21.929568      SFTREACH1                               
     2      (1,1,170)             21.270432      SFTREACH2                               
     3      (1,1,171)             0.0000000      SFTREACH3                               
     4      (1,1,172)             0.0000000      SFTREACH4                               
     5      (1,1,173)             0.0000000      SFTREACH5                               
     6      (1,1,174)             0.0000000      SFTREACH6                               
     7      (1,1,175)             0.0000000      SFTREACH7                               
     8      (1,1,176)             0.0000000      SFTREACH8                               
     9      (1,1,177)             0.0000000      SFTREACH9                               
     10     (1,1,178)             0.0000000      SFTREACH10                              
     11     (1,1,179)             0.0000000      SFTREACH11                              
     12     (1,1,180)             0.0000000      SFTREACH12                              
     13     (1,1,181)             0.0000000      SFTREACH13                              
     14     (1,1,182)             0.0000000      SFTREACH14                              
     15     (1,1,183)             0.0000000      SFTREACH15                              
     16     (1,1,184)             0.0000000      SFTREACH16                              
     17     (1,1,185)             0.0000000      SFTREACH17                              
     18     (1,1,186)             0.0000000      SFTREACH18                              
     19     (1,1,187)             0.0000000      SFTREACH19                              
     20     (1,1,188)             0.0000000      SFTREACH20                              
     21     (1,1,189)             0.0000000      SFTREACH21                              
     22     (1,1,190)             0.0000000      SFTREACH22                              
     23     (1,1,191)             0.0000000      SFTREACH23                              
     24     (1,1,192)             0.0000000      SFTREACH24                              
 ----------------------------------------------------------------------------------------




 SFR-1 PACKAGE - SUMMARY OF FLOWS FOR EACH CONTROL VOLUME   PERIOD      1   STEP       29
 ----------------------------------------------------------------------------------------------------------------------------------------------------------------------
                                                                                                                                                             PERCENT   
   NUMBER      INFLOW      OUTFLOW        GWF        RAINFALL   EVAPORATION     RUNOFF     EXT INFLOW  EXT OUTFLOW    STORAGE      CONSTANT     IN - OUT    DIFFERENCE 
 ----------------------------------------------------------------------------------------------------------------------------------------------------------------------
     1       0.0000      -21.270      -21.930       0.0000       0.0000       0.0000       43.200       0.0000       0.0000       0.0000      -7.10543E-15 -1.64477E-14
     2       21.270       0.0000      -21.270       0.0000       0.0000       0.0000       0.0000       0.0000       0.0000       0.0000       3.55271E-15  1.67026E-14
     3       0.0000       0.0000       0.0000       0.0000       0.0000       0.0000       0.0000       0.0000       0.0000       0.0000       0.0000       0.0000     
     4       0.0000       0.0000       0.0000       0.0000       0.0000       0.0000       0.0000       0.0000       0.0000       0.0000       0.0000       0.0000     
     5       0.0000       0.0000       0.0000       0.0000       0.0000       0.0000       0.0000       0.0000       0.0000       0.0000       0.0000       0.0000     
     6       0.0000       0.0000       0.0000       0.0000       0.0000       0.0000       0.0000       0.0000       0.0000       0.0000       0.0000       0.0000     
     7       0.0000       0.0000       0.0000       0.0000       0.0000       0.0000       0.0000       0.0000       0.0000       0.0000       0.0000       0.0000     
     8       0.0000       0.0000       0.0000       0.0000       0.0000       0.0000       0.0000       0.0000       0.0000       0.0000       0.0000       0.0000     
     9       0.0000       0.0000       0.0000       0.0000       0.0000       0.0000       0.0000       0.0000       0.0000       0.0000       0.0000       0.0000     
     10      0.0000       0.0000       0.0000       0.0000       0.0000       0.0000       0.0000       0.0000       0.0000       0.0000       0.0000       0.0000     
     11      0.0000       0.0000       0.0000       0.0000       0.0000       0.0000       0.0000       0.0000       0.0000       0.0000       0.0000       0.0000     
     12      0.0000       0.0000       0.0000       0.0000       0.0000       0.0000       0.0000       0.0000       0.0000       0.0000       0.0000       0.0000     
     13      0.0000       0.0000       0.0000       0.0000       0.0000       0.0000       0.0000       0.0000       0.0000       0.0000       0.0000       0.0000     
     14      0.0000       0.0000       0.0000       0.0000       0.0000       0.0000       0.0000       0.0000       0.0000       0.0000       0.0000       0.0000     
     15      0.0000       0.0000       0.0000       0.0000       0.0000       0.0000       0.0000       0.0000       0.0000       0.0000       0.0000       0.0000     
     16      0.0000       0.0000       0.0000       0.0000       0.0000       0.0000       0.0000       0.0000       0.0000       0.0000       0.0000       0.0000     
     17      0.0000       0.0000       0.0000       0.0000       0.0000       0.0000       0.0000       0.0000       0.0000       0.0000       0.0000       0.0000     
     18      0.0000       0.0000       0.0000       0.0000       0.0000       0.0000       0.0000       0.0000       0.0000       0.0000       0.0000       0.0000     
     19      0.0000       0.0000       0.0000       0.0000       0.0000       0.0000       0.0000       0.0000       0.0000       0.0000       0.0000       0.0000     
     20      0.0000       0.0000       0.0000       0.0000       0.0000       0.0000       0.0000       0.0000       0.0000       0.0000       0.0000       0.0000     
     21      0.0000       0.0000       0.0000       0.0000       0.0000       0.0000       0.0000       0.0000       0.0000       0.0000       0.0000       0.0000     
     22      0.0000       0.0000       0.0000       0.0000       0.0000       0.0000       0.0000       0.0000       0.0000       0.0000       0.0000       0.0000     
     23      0.0000       0.0000       0.0000       0.0000       0.0000       0.0000       0.0000       0.0000       0.0000       0.0000       0.0000       0.0000     
     24      0.0000       0.0000       0.0000       0.0000       0.0000       0.0000       0.0000       0.0000       0.0000       0.0000       0.0000       0.0000     
 ----------------------------------------------------------------------------------------------------------------------------------------------------------------------




  SFR-1 BUDGET FOR ENTIRE MODEL AT END OF TIME STEP   29, STRESS PERIOD   1
  ------------------------------------------------------------------------------

     CUMULATIVE SFR-1      M       RATES FOR THIS TIME STEP      M/T
     ------------------                 ------------------------

           IN:                                      IN:
           ---                                      ---
                 GWF =           0.0000                   GWF =           0.0000
            RAINFALL =           0.0000              RAINFALL =           0.0000
         EVAPORATION =           0.0000           EVAPORATION =           0.0000
              RUNOFF =           0.0000                RUNOFF =           0.0000
          EXT-INFLOW =       12528.0000            EXT-INFLOW =          43.2000
         EXT-OUTFLOW =           0.0000           EXT-OUTFLOW =           0.0000
             STORAGE =           0.0000               STORAGE =           0.0000
            CONSTANT =           0.0000              CONSTANT =           0.0000

            TOTAL IN =       12528.0000              TOTAL IN =          43.2000

          OUT:                                     OUT:
          ----                                     ----
                 GWF =       12528.0000                   GWF =          43.2000
            RAINFALL =           0.0000              RAINFALL =           0.0000
         EVAPORATION =           0.0000           EVAPORATION =           0.0000
              RUNOFF =           0.0000                RUNOFF =           0.0000
          EXT-INFLOW =           0.0000            EXT-INFLOW =           0.0000
         EXT-OUTFLOW =           0.0000           EXT-OUTFLOW =           0.0000
             STORAGE =       2.7756E-16               STORAGE =           0.0000
            CONSTANT =           0.0000              CONSTANT =           0.0000

           TOTAL OUT =       12528.0000             TOTAL OUT =          43.2000

            IN - OUT =           0.0000              IN - OUT =           0.0000

 PERCENT DISCREPANCY =           0.00     PERCENT DISCREPANCY =           0.00



  MASS BUDGET FOR ENTIRE MODEL AT END OF TIME STEP   29, STRESS PERIOD   1
  ---------------------------------------------------------------------------------------------------

     CUMULATIVE MASS      M       RATES FOR THIS TIME STEP      M/T          PACKAGE NAME    
     ------------------                 ------------------------                     ----------------

           IN:                                      IN:
           ---                                      ---
     STORAGE-AQUEOUS =       5.8182E-14       STORAGE-AQUEOUS =       5.5582E-16     MST             
               RCH-1 =           0.0000                 RCH-1 =           0.0000     SSM             
               CHD-1 =           0.0000                 CHD-1 =           0.0000     SSM             
     FLOW-CORRECTION =       3.0025E-07       FLOW-CORRECTION =       1.2133E-09                     
                 SFT =       12528.0000                   SFT =          43.2000     SFR-1           

            TOTAL IN =       12528.0000              TOTAL IN =          43.2000

          OUT:                                     OUT:
          ----                                     ----
     STORAGE-AQUEOUS =       12527.9999       STORAGE-AQUEOUS =          43.2000     MST             
               RCH-1 =           0.0000                 RCH-1 =           0.0000     SSM             
               CHD-1 =       4.8103E-83                 CHD-1 =       4.0424E-84     SSM             
     FLOW-CORRECTION =       6.0514E-05       FLOW-CORRECTION =       4.1566E-07                     
                 SFT =           0.0000                   SFT =           0.0000     SFR-1           

           TOTAL OUT =       12528.0000             TOTAL OUT =          43.2000

            IN - OUT =       5.3727E-06              IN - OUT =       1.5621E-08

 PERCENT DISCREPANCY =           0.00     PERCENT DISCREPANCY =           0.00




         TIME SUMMARY AT END OF TIME STEP   29 IN STRESS PERIOD    1
                    SECONDS     MINUTES      HOURS       DAYS        YEARS
                    -----------------------------------------------------------
   TIME STEP LENGTH 8.64000E+05  14400.      240.00      10.000     2.73785E-02
 STRESS PERIOD TIME 2.50560E+07 4.17600E+05  6960.0      290.00     0.79398    
         TOTAL TIME 2.50560E+07 4.17600E+05  6960.0      290.00     0.79398    


end timestep


start timestep kper="1" kstp="30" mode="normal"


 FMI SETTING BUDGET TERMS FOR KSTP 30 AND KPER 1 TO BUDGET FILE TERMS FROM KSTP 1 AND KPER 1

 FMI SETTING HEAD FOR KSTP 30 AND KPER 1 TO BINARY FILE HEADS FROM KSTP 1 AND KPER 1

 SFR-1 SETTING BUDGET TERMS FOR KSTP 30 AND KPER 1 TO BUDGET FILE TERMS FROM KSTP 1 AND KPER 1

 SFT PACKAGE (SFR-1) FLOW RATES   PERIOD      1   STEP       30
 ----------------------------------------------------------------------------------------
   NUMBER   CELLID                    RATE       NAME                                    
 ----------------------------------------------------------------------------------------
     1      (1,1,169)             21.929568      SFTREACH1                               
     2      (1,1,170)             21.270432      SFTREACH2                               
     3      (1,1,171)             0.0000000      SFTREACH3                               
     4      (1,1,172)             0.0000000      SFTREACH4                               
     5      (1,1,173)             0.0000000      SFTREACH5                               
     6      (1,1,174)             0.0000000      SFTREACH6                               
     7      (1,1,175)             0.0000000      SFTREACH7                               
     8      (1,1,176)             0.0000000      SFTREACH8                               
     9      (1,1,177)             0.0000000      SFTREACH9                               
     10     (1,1,178)             0.0000000      SFTREACH10                              
     11     (1,1,179)             0.0000000      SFTREACH11                              
     12     (1,1,180)             0.0000000      SFTREACH12                              
     13     (1,1,181)             0.0000000      SFTREACH13                              
     14     (1,1,182)             0.0000000      SFTREACH14                              
     15     (1,1,183)             0.0000000      SFTREACH15                              
     16     (1,1,184)             0.0000000      SFTREACH16                              
     17     (1,1,185)             0.0000000      SFTREACH17                              
     18     (1,1,186)             0.0000000      SFTREACH18                              
     19     (1,1,187)             0.0000000      SFTREACH19                              
     20     (1,1,188)             0.0000000      SFTREACH20                              
     21     (1,1,189)             0.0000000      SFTREACH21                              
     22     (1,1,190)             0.0000000      SFTREACH22                              
     23     (1,1,191)             0.0000000      SFTREACH23                              
     24     (1,1,192)             0.0000000      SFTREACH24                              
 ----------------------------------------------------------------------------------------




 SFR-1 PACKAGE - SUMMARY OF FLOWS FOR EACH CONTROL VOLUME   PERIOD      1   STEP       30
 ----------------------------------------------------------------------------------------------------------------------------------------------------------------------
                                                                                                                                                             PERCENT   
   NUMBER      INFLOW      OUTFLOW        GWF        RAINFALL   EVAPORATION     RUNOFF     EXT INFLOW  EXT OUTFLOW    STORAGE      CONSTANT     IN - OUT    DIFFERENCE 
 ----------------------------------------------------------------------------------------------------------------------------------------------------------------------
     1       0.0000      -21.270      -21.930       0.0000       0.0000       0.0000       43.200       0.0000       0.0000       0.0000      -7.10543E-15 -1.64477E-14
     2       21.270       0.0000      -21.270       0.0000       0.0000       0.0000       0.0000       0.0000       0.0000       0.0000       3.55271E-15  1.67026E-14
     3       0.0000       0.0000       0.0000       0.0000       0.0000       0.0000       0.0000       0.0000       0.0000       0.0000       0.0000       0.0000     
     4       0.0000       0.0000       0.0000       0.0000       0.0000       0.0000       0.0000       0.0000       0.0000       0.0000       0.0000       0.0000     
     5       0.0000       0.0000       0.0000       0.0000       0.0000       0.0000       0.0000       0.0000       0.0000       0.0000       0.0000       0.0000     
     6       0.0000       0.0000       0.0000       0.0000       0.0000       0.0000       0.0000       0.0000       0.0000       0.0000       0.0000       0.0000     
     7       0.0000       0.0000       0.0000       0.0000       0.0000       0.0000       0.0000       0.0000       0.0000       0.0000       0.0000       0.0000     
     8       0.0000       0.0000       0.0000       0.0000       0.0000       0.0000       0.0000       0.0000       0.0000       0.0000       0.0000       0.0000     
     9       0.0000       0.0000       0.0000       0.0000       0.0000       0.0000       0.0000       0.0000       0.0000       0.0000       0.0000       0.0000     
     10      0.0000       0.0000       0.0000       0.0000       0.0000       0.0000       0.0000       0.0000       0.0000       0.0000       0.0000       0.0000     
     11      0.0000       0.0000       0.0000       0.0000       0.0000       0.0000       0.0000       0.0000       0.0000       0.0000       0.0000       0.0000     
     12      0.0000       0.0000       0.0000       0.0000       0.0000       0.0000       0.0000       0.0000       0.0000       0.0000       0.0000       0.0000     
     13      0.0000       0.0000       0.0000       0.0000       0.0000       0.0000       0.0000       0.0000       0.0000       0.0000       0.0000       0.0000     
     14      0.0000       0.0000       0.0000       0.0000       0.0000       0.0000       0.0000       0.0000       0.0000       0.0000       0.0000       0.0000     
     15      0.0000       0.0000       0.0000       0.0000       0.0000       0.0000       0.0000       0.0000       0.0000       0.0000       0.0000       0.0000     
     16      0.0000       0.0000       0.0000       0.0000       0.0000       0.0000       0.0000       0.0000       0.0000       0.0000       0.0000       0.0000     
     17      0.0000       0.0000       0.0000       0.0000       0.0000       0.0000       0.0000       0.0000       0.0000       0.0000       0.0000       0.0000     
     18      0.0000       0.0000       0.0000       0.0000       0.0000       0.0000       0.0000       0.0000       0.0000       0.0000       0.0000       0.0000     
     19      0.0000       0.0000       0.0000       0.0000       0.0000       0.0000       0.0000       0.0000       0.0000       0.0000       0.0000       0.0000     
     20      0.0000       0.0000       0.0000       0.0000       0.0000       0.0000       0.0000       0.0000       0.0000       0.0000       0.0000       0.0000     
     21      0.0000       0.0000       0.0000       0.0000       0.0000       0.0000       0.0000       0.0000       0.0000       0.0000       0.0000       0.0000     
     22      0.0000       0.0000       0.0000       0.0000       0.0000       0.0000       0.0000       0.0000       0.0000       0.0000       0.0000       0.0000     
     23      0.0000       0.0000       0.0000       0.0000       0.0000       0.0000       0.0000       0.0000       0.0000       0.0000       0.0000       0.0000     
     24      0.0000       0.0000       0.0000       0.0000       0.0000       0.0000       0.0000       0.0000       0.0000       0.0000       0.0000       0.0000     
 ----------------------------------------------------------------------------------------------------------------------------------------------------------------------



 CONCENTRATION WILL BE SAVED ON UNIT 1024 AT END OF TIME STEP   30, STRESS PERIOD    1


  SFR-1 BUDGET FOR ENTIRE MODEL AT END OF TIME STEP   30, STRESS PERIOD   1
  ------------------------------------------------------------------------------

     CUMULATIVE SFR-1      M       RATES FOR THIS TIME STEP      M/T
     ------------------                 ------------------------

           IN:                                      IN:
           ---                                      ---
                 GWF =           0.0000                   GWF =           0.0000
            RAINFALL =           0.0000              RAINFALL =           0.0000
         EVAPORATION =           0.0000           EVAPORATION =           0.0000
              RUNOFF =           0.0000                RUNOFF =           0.0000
          EXT-INFLOW =       12960.0000            EXT-INFLOW =          43.2000
         EXT-OUTFLOW =           0.0000           EXT-OUTFLOW =           0.0000
             STORAGE =           0.0000               STORAGE =           0.0000
            CONSTANT =           0.0000              CONSTANT =           0.0000

            TOTAL IN =       12960.0000              TOTAL IN =          43.2000

          OUT:                                     OUT:
          ----                                     ----
                 GWF =       12960.0000                   GWF =          43.2000
            RAINFALL =           0.0000              RAINFALL =           0.0000
         EVAPORATION =           0.0000           EVAPORATION =           0.0000
              RUNOFF =           0.0000                RUNOFF =           0.0000
          EXT-INFLOW =           0.0000            EXT-INFLOW =           0.0000
         EXT-OUTFLOW =           0.0000           EXT-OUTFLOW =           0.0000
             STORAGE =       2.7756E-16               STORAGE =           0.0000
            CONSTANT =           0.0000              CONSTANT =           0.0000

           TOTAL OUT =       12960.0000             TOTAL OUT =          43.2000

            IN - OUT =           0.0000              IN - OUT =           0.0000

 PERCENT DISCREPANCY =           0.00     PERCENT DISCREPANCY =           0.00



  MASS BUDGET FOR ENTIRE MODEL AT END OF TIME STEP   30, STRESS PERIOD   1
  ---------------------------------------------------------------------------------------------------

     CUMULATIVE MASS      M       RATES FOR THIS TIME STEP      M/T          PACKAGE NAME    
     ------------------                 ------------------------                     ----------------

           IN:                                      IN:
           ---                                      ---
     STORAGE-AQUEOUS =       6.3740E-14       STORAGE-AQUEOUS =       5.5582E-16     MST             
               RCH-1 =           0.0000                 RCH-1 =           0.0000     SSM             
               CHD-1 =           0.0000                 CHD-1 =           0.0000     SSM             
     FLOW-CORRECTION =       3.1290E-07       FLOW-CORRECTION =       1.2647E-09                     
                 SFT =       12960.0000                   SFT =          43.2000     SFR-1           

            TOTAL IN =       12960.0000              TOTAL IN =          43.2000

          OUT:                                     OUT:
          ----                                     ----
     STORAGE-AQUEOUS =       12959.9999       STORAGE-AQUEOUS =          43.2000     MST             
               RCH-1 =           0.0000                 RCH-1 =           0.0000     SSM             
               CHD-1 =       2.9208E-82                 CHD-1 =       2.4398E-83     SSM             
     FLOW-CORRECTION =       6.4811E-05       FLOW-CORRECTION =       4.2967E-07                     
                 SFT =           0.0000                   SFT =           0.0000     SFR-1           

           TOTAL OUT =       12960.0000             TOTAL OUT =          43.2000

            IN - OUT =       5.5285E-06              IN - OUT =       1.5587E-08

 PERCENT DISCREPANCY =           0.00     PERCENT DISCREPANCY =           0.00




         TIME SUMMARY AT END OF TIME STEP   30 IN STRESS PERIOD    1
                    SECONDS     MINUTES      HOURS       DAYS        YEARS
                    -----------------------------------------------------------
   TIME STEP LENGTH 8.64000E+05  14400.      240.00      10.000     2.73785E-02
 STRESS PERIOD TIME 2.59200E+07 4.32000E+05  7200.0      300.00     0.82136    
         TOTAL TIME 2.59200E+07 4.32000E+05  7200.0      300.00     0.82136    


end timestep


start timestep kper="1" kstp="31" mode="normal"


 FMI SETTING BUDGET TERMS FOR KSTP 31 AND KPER 1 TO BUDGET FILE TERMS FROM KSTP 1 AND KPER 1

 FMI SETTING HEAD FOR KSTP 31 AND KPER 1 TO BINARY FILE HEADS FROM KSTP 1 AND KPER 1

 SFR-1 SETTING BUDGET TERMS FOR KSTP 31 AND KPER 1 TO BUDGET FILE TERMS FROM KSTP 1 AND KPER 1

 SFT PACKAGE (SFR-1) FLOW RATES   PERIOD      1   STEP       31
 ----------------------------------------------------------------------------------------
   NUMBER   CELLID                    RATE       NAME                                    
 ----------------------------------------------------------------------------------------
     1      (1,1,169)             21.929568      SFTREACH1                               
     2      (1,1,170)             21.270432      SFTREACH2                               
     3      (1,1,171)             0.0000000      SFTREACH3                               
     4      (1,1,172)             0.0000000      SFTREACH4                               
     5      (1,1,173)             0.0000000      SFTREACH5                               
     6      (1,1,174)             0.0000000      SFTREACH6                               
     7      (1,1,175)             0.0000000      SFTREACH7                               
     8      (1,1,176)             0.0000000      SFTREACH8                               
     9      (1,1,177)             0.0000000      SFTREACH9                               
     10     (1,1,178)             0.0000000      SFTREACH10                              
     11     (1,1,179)             0.0000000      SFTREACH11                              
     12     (1,1,180)             0.0000000      SFTREACH12                              
     13     (1,1,181)             0.0000000      SFTREACH13                              
     14     (1,1,182)             0.0000000      SFTREACH14                              
     15     (1,1,183)             0.0000000      SFTREACH15                              
     16     (1,1,184)             0.0000000      SFTREACH16                              
     17     (1,1,185)             0.0000000      SFTREACH17                              
     18     (1,1,186)             0.0000000      SFTREACH18                              
     19     (1,1,187)             0.0000000      SFTREACH19                              
     20     (1,1,188)             0.0000000      SFTREACH20                              
     21     (1,1,189)             0.0000000      SFTREACH21                              
     22     (1,1,190)             0.0000000      SFTREACH22                              
     23     (1,1,191)             0.0000000      SFTREACH23                              
     24     (1,1,192)             0.0000000      SFTREACH24                              
 ----------------------------------------------------------------------------------------




 SFR-1 PACKAGE - SUMMARY OF FLOWS FOR EACH CONTROL VOLUME   PERIOD      1   STEP       31
 ----------------------------------------------------------------------------------------------------------------------------------------------------------------------
                                                                                                                                                             PERCENT   
   NUMBER      INFLOW      OUTFLOW        GWF        RAINFALL   EVAPORATION     RUNOFF     EXT INFLOW  EXT OUTFLOW    STORAGE      CONSTANT     IN - OUT    DIFFERENCE 
 ----------------------------------------------------------------------------------------------------------------------------------------------------------------------
     1       0.0000      -21.270      -21.930       0.0000       0.0000       0.0000       43.200       0.0000       0.0000       0.0000      -7.10543E-15 -1.64477E-14
     2       21.270       0.0000      -21.270       0.0000       0.0000       0.0000       0.0000       0.0000       0.0000       0.0000       3.55271E-15  1.67026E-14
     3       0.0000       0.0000       0.0000       0.0000       0.0000       0.0000       0.0000       0.0000       0.0000       0.0000       0.0000       0.0000     
     4       0.0000       0.0000       0.0000       0.0000       0.0000       0.0000       0.0000       0.0000       0.0000       0.0000       0.0000       0.0000     
     5       0.0000       0.0000       0.0000       0.0000       0.0000       0.0000       0.0000       0.0000       0.0000       0.0000       0.0000       0.0000     
     6       0.0000       0.0000       0.0000       0.0000       0.0000       0.0000       0.0000       0.0000       0.0000       0.0000       0.0000       0.0000     
     7       0.0000       0.0000       0.0000       0.0000       0.0000       0.0000       0.0000       0.0000       0.0000       0.0000       0.0000       0.0000     
     8       0.0000       0.0000       0.0000       0.0000       0.0000       0.0000       0.0000       0.0000       0.0000       0.0000       0.0000       0.0000     
     9       0.0000       0.0000       0.0000       0.0000       0.0000       0.0000       0.0000       0.0000       0.0000       0.0000       0.0000       0.0000     
     10      0.0000       0.0000       0.0000       0.0000       0.0000       0.0000       0.0000       0.0000       0.0000       0.0000       0.0000       0.0000     
     11      0.0000       0.0000       0.0000       0.0000       0.0000       0.0000       0.0000       0.0000       0.0000       0.0000       0.0000       0.0000     
     12      0.0000       0.0000       0.0000       0.0000       0.0000       0.0000       0.0000       0.0000       0.0000       0.0000       0.0000       0.0000     
     13      0.0000       0.0000       0.0000       0.0000       0.0000       0.0000       0.0000       0.0000       0.0000       0.0000       0.0000       0.0000     
     14      0.0000       0.0000       0.0000       0.0000       0.0000       0.0000       0.0000       0.0000       0.0000       0.0000       0.0000       0.0000     
     15      0.0000       0.0000       0.0000       0.0000       0.0000       0.0000       0.0000       0.0000       0.0000       0.0000       0.0000       0.0000     
     16      0.0000       0.0000       0.0000       0.0000       0.0000       0.0000       0.0000       0.0000       0.0000       0.0000       0.0000       0.0000     
     17      0.0000       0.0000       0.0000       0.0000       0.0000       0.0000       0.0000       0.0000       0.0000       0.0000       0.0000       0.0000     
     18      0.0000       0.0000       0.0000       0.0000       0.0000       0.0000       0.0000       0.0000       0.0000       0.0000       0.0000       0.0000     
     19      0.0000       0.0000       0.0000       0.0000       0.0000       0.0000       0.0000       0.0000       0.0000       0.0000       0.0000       0.0000     
     20      0.0000       0.0000       0.0000       0.0000       0.0000       0.0000       0.0000       0.0000       0.0000       0.0000       0.0000       0.0000     
     21      0.0000       0.0000       0.0000       0.0000       0.0000       0.0000       0.0000       0.0000       0.0000       0.0000       0.0000       0.0000     
     22      0.0000       0.0000       0.0000       0.0000       0.0000       0.0000       0.0000       0.0000       0.0000       0.0000       0.0000       0.0000     
     23      0.0000       0.0000       0.0000       0.0000       0.0000       0.0000       0.0000       0.0000       0.0000       0.0000       0.0000       0.0000     
     24      0.0000       0.0000       0.0000       0.0000       0.0000       0.0000       0.0000       0.0000       0.0000       0.0000       0.0000       0.0000     
 ----------------------------------------------------------------------------------------------------------------------------------------------------------------------




  SFR-1 BUDGET FOR ENTIRE MODEL AT END OF TIME STEP   31, STRESS PERIOD   1
  ------------------------------------------------------------------------------

     CUMULATIVE SFR-1      M       RATES FOR THIS TIME STEP      M/T
     ------------------                 ------------------------

           IN:                                      IN:
           ---                                      ---
                 GWF =           0.0000                   GWF =           0.0000
            RAINFALL =           0.0000              RAINFALL =           0.0000
         EVAPORATION =           0.0000           EVAPORATION =           0.0000
              RUNOFF =           0.0000                RUNOFF =           0.0000
          EXT-INFLOW =       13392.0000            EXT-INFLOW =          43.2000
         EXT-OUTFLOW =           0.0000           EXT-OUTFLOW =           0.0000
             STORAGE =           0.0000               STORAGE =           0.0000
            CONSTANT =           0.0000              CONSTANT =           0.0000

            TOTAL IN =       13392.0000              TOTAL IN =          43.2000

          OUT:                                     OUT:
          ----                                     ----
                 GWF =       13392.0000                   GWF =          43.2000
            RAINFALL =           0.0000              RAINFALL =           0.0000
         EVAPORATION =           0.0000           EVAPORATION =           0.0000
              RUNOFF =           0.0000                RUNOFF =           0.0000
          EXT-INFLOW =           0.0000            EXT-INFLOW =           0.0000
         EXT-OUTFLOW =           0.0000           EXT-OUTFLOW =           0.0000
             STORAGE =       2.7756E-16               STORAGE =           0.0000
            CONSTANT =           0.0000              CONSTANT =           0.0000

           TOTAL OUT =       13392.0000             TOTAL OUT =          43.2000

            IN - OUT =           0.0000              IN - OUT =           0.0000

 PERCENT DISCREPANCY =           0.00     PERCENT DISCREPANCY =           0.00



  MASS BUDGET FOR ENTIRE MODEL AT END OF TIME STEP   31, STRESS PERIOD   1
  ---------------------------------------------------------------------------------------------------

     CUMULATIVE MASS      M       RATES FOR THIS TIME STEP      M/T          PACKAGE NAME    
     ------------------                 ------------------------                     ----------------

           IN:                                      IN:
           ---                                      ---
     STORAGE-AQUEOUS =       6.9299E-14       STORAGE-AQUEOUS =       5.5582E-16     MST             
               RCH-1 =           0.0000                 RCH-1 =           0.0000     SSM             
               CHD-1 =           0.0000                 CHD-1 =           0.0000     SSM             
     FLOW-CORRECTION =       3.2616E-07       FLOW-CORRECTION =       1.3260E-09                     
                 SFT =       13392.0000                   SFT =          43.2000     SFR-1           

            TOTAL IN =       13392.0000              TOTAL IN =          43.2000

          OUT:                                     OUT:
          ----                                     ----
     STORAGE-AQUEOUS =       13391.9999       STORAGE-AQUEOUS =          43.2000     MST             
               RCH-1 =           0.0000                 RCH-1 =           0.0000     SSM             
               CHD-1 =       1.7212E-81                 CHD-1 =       1.4291E-82     SSM             
     FLOW-CORRECTION =       6.9246E-05       FLOW-CORRECTION =       4.4344E-07                     
                 SFT =           0.0000                   SFT =           0.0000     SFR-1           

           TOTAL OUT =       13392.0000             TOTAL OUT =          43.2000

            IN - OUT =       5.6847E-06              IN - OUT =       1.5614E-08

 PERCENT DISCREPANCY =           0.00     PERCENT DISCREPANCY =           0.00




         TIME SUMMARY AT END OF TIME STEP   31 IN STRESS PERIOD    1
                    SECONDS     MINUTES      HOURS       DAYS        YEARS
                    -----------------------------------------------------------
   TIME STEP LENGTH 8.64000E+05  14400.      240.00      10.000     2.73785E-02
 STRESS PERIOD TIME 2.67840E+07 4.46400E+05  7440.0      310.00     0.84873    
         TOTAL TIME 2.67840E+07 4.46400E+05  7440.0      310.00     0.84873    


end timestep


start timestep kper="1" kstp="32" mode="normal"


 FMI SETTING BUDGET TERMS FOR KSTP 32 AND KPER 1 TO BUDGET FILE TERMS FROM KSTP 1 AND KPER 1

 FMI SETTING HEAD FOR KSTP 32 AND KPER 1 TO BINARY FILE HEADS FROM KSTP 1 AND KPER 1

 SFR-1 SETTING BUDGET TERMS FOR KSTP 32 AND KPER 1 TO BUDGET FILE TERMS FROM KSTP 1 AND KPER 1

 SFT PACKAGE (SFR-1) FLOW RATES   PERIOD      1   STEP       32
 ----------------------------------------------------------------------------------------
   NUMBER   CELLID                    RATE       NAME                                    
 ----------------------------------------------------------------------------------------
     1      (1,1,169)             21.929568      SFTREACH1                               
     2      (1,1,170)             21.270432      SFTREACH2                               
     3      (1,1,171)             0.0000000      SFTREACH3                               
     4      (1,1,172)             0.0000000      SFTREACH4                               
     5      (1,1,173)             0.0000000      SFTREACH5                               
     6      (1,1,174)             0.0000000      SFTREACH6                               
     7      (1,1,175)             0.0000000      SFTREACH7                               
     8      (1,1,176)             0.0000000      SFTREACH8                               
     9      (1,1,177)             0.0000000      SFTREACH9                               
     10     (1,1,178)             0.0000000      SFTREACH10                              
     11     (1,1,179)             0.0000000      SFTREACH11                              
     12     (1,1,180)             0.0000000      SFTREACH12                              
     13     (1,1,181)             0.0000000      SFTREACH13                              
     14     (1,1,182)             0.0000000      SFTREACH14                              
     15     (1,1,183)             0.0000000      SFTREACH15                              
     16     (1,1,184)             0.0000000      SFTREACH16                              
     17     (1,1,185)             0.0000000      SFTREACH17                              
     18     (1,1,186)             0.0000000      SFTREACH18                              
     19     (1,1,187)             0.0000000      SFTREACH19                              
     20     (1,1,188)             0.0000000      SFTREACH20                              
     21     (1,1,189)             0.0000000      SFTREACH21                              
     22     (1,1,190)             0.0000000      SFTREACH22                              
     23     (1,1,191)             0.0000000      SFTREACH23                              
     24     (1,1,192)             0.0000000      SFTREACH24                              
 ----------------------------------------------------------------------------------------




 SFR-1 PACKAGE - SUMMARY OF FLOWS FOR EACH CONTROL VOLUME   PERIOD      1   STEP       32
 ----------------------------------------------------------------------------------------------------------------------------------------------------------------------
                                                                                                                                                             PERCENT   
   NUMBER      INFLOW      OUTFLOW        GWF        RAINFALL   EVAPORATION     RUNOFF     EXT INFLOW  EXT OUTFLOW    STORAGE      CONSTANT     IN - OUT    DIFFERENCE 
 ----------------------------------------------------------------------------------------------------------------------------------------------------------------------
     1       0.0000      -21.270      -21.930       0.0000       0.0000       0.0000       43.200       0.0000       0.0000       0.0000      -7.10543E-15 -1.64477E-14
     2       21.270       0.0000      -21.270       0.0000       0.0000       0.0000       0.0000       0.0000       0.0000       0.0000       3.55271E-15  1.67026E-14
     3       0.0000       0.0000       0.0000       0.0000       0.0000       0.0000       0.0000       0.0000       0.0000       0.0000       0.0000       0.0000     
     4       0.0000       0.0000       0.0000       0.0000       0.0000       0.0000       0.0000       0.0000       0.0000       0.0000       0.0000       0.0000     
     5       0.0000       0.0000       0.0000       0.0000       0.0000       0.0000       0.0000       0.0000       0.0000       0.0000       0.0000       0.0000     
     6       0.0000       0.0000       0.0000       0.0000       0.0000       0.0000       0.0000       0.0000       0.0000       0.0000       0.0000       0.0000     
     7       0.0000       0.0000       0.0000       0.0000       0.0000       0.0000       0.0000       0.0000       0.0000       0.0000       0.0000       0.0000     
     8       0.0000       0.0000       0.0000       0.0000       0.0000       0.0000       0.0000       0.0000       0.0000       0.0000       0.0000       0.0000     
     9       0.0000       0.0000       0.0000       0.0000       0.0000       0.0000       0.0000       0.0000       0.0000       0.0000       0.0000       0.0000     
     10      0.0000       0.0000       0.0000       0.0000       0.0000       0.0000       0.0000       0.0000       0.0000       0.0000       0.0000       0.0000     
     11      0.0000       0.0000       0.0000       0.0000       0.0000       0.0000       0.0000       0.0000       0.0000       0.0000       0.0000       0.0000     
     12      0.0000       0.0000       0.0000       0.0000       0.0000       0.0000       0.0000       0.0000       0.0000       0.0000       0.0000       0.0000     
     13      0.0000       0.0000       0.0000       0.0000       0.0000       0.0000       0.0000       0.0000       0.0000       0.0000       0.0000       0.0000     
     14      0.0000       0.0000       0.0000       0.0000       0.0000       0.0000       0.0000       0.0000       0.0000       0.0000       0.0000       0.0000     
     15      0.0000       0.0000       0.0000       0.0000       0.0000       0.0000       0.0000       0.0000       0.0000       0.0000       0.0000       0.0000     
     16      0.0000       0.0000       0.0000       0.0000       0.0000       0.0000       0.0000       0.0000       0.0000       0.0000       0.0000       0.0000     
     17      0.0000       0.0000       0.0000       0.0000       0.0000       0.0000       0.0000       0.0000       0.0000       0.0000       0.0000       0.0000     
     18      0.0000       0.0000       0.0000       0.0000       0.0000       0.0000       0.0000       0.0000       0.0000       0.0000       0.0000       0.0000     
     19      0.0000       0.0000       0.0000       0.0000       0.0000       0.0000       0.0000       0.0000       0.0000       0.0000       0.0000       0.0000     
     20      0.0000       0.0000       0.0000       0.0000       0.0000       0.0000       0.0000       0.0000       0.0000       0.0000       0.0000       0.0000     
     21      0.0000       0.0000       0.0000       0.0000       0.0000       0.0000       0.0000       0.0000       0.0000       0.0000       0.0000       0.0000     
     22      0.0000       0.0000       0.0000       0.0000       0.0000       0.0000       0.0000       0.0000       0.0000       0.0000       0.0000       0.0000     
     23      0.0000       0.0000       0.0000       0.0000       0.0000       0.0000       0.0000       0.0000       0.0000       0.0000       0.0000       0.0000     
     24      0.0000       0.0000       0.0000       0.0000       0.0000       0.0000       0.0000       0.0000       0.0000       0.0000       0.0000       0.0000     
 ----------------------------------------------------------------------------------------------------------------------------------------------------------------------




  SFR-1 BUDGET FOR ENTIRE MODEL AT END OF TIME STEP   32, STRESS PERIOD   1
  ------------------------------------------------------------------------------

     CUMULATIVE SFR-1      M       RATES FOR THIS TIME STEP      M/T
     ------------------                 ------------------------

           IN:                                      IN:
           ---                                      ---
                 GWF =           0.0000                   GWF =           0.0000
            RAINFALL =           0.0000              RAINFALL =           0.0000
         EVAPORATION =           0.0000           EVAPORATION =           0.0000
              RUNOFF =           0.0000                RUNOFF =           0.0000
          EXT-INFLOW =       13824.0000            EXT-INFLOW =          43.2000
         EXT-OUTFLOW =           0.0000           EXT-OUTFLOW =           0.0000
             STORAGE =           0.0000               STORAGE =           0.0000
            CONSTANT =           0.0000              CONSTANT =           0.0000

            TOTAL IN =       13824.0000              TOTAL IN =          43.2000

          OUT:                                     OUT:
          ----                                     ----
                 GWF =       13824.0000                   GWF =          43.2000
            RAINFALL =           0.0000              RAINFALL =           0.0000
         EVAPORATION =           0.0000           EVAPORATION =           0.0000
              RUNOFF =           0.0000                RUNOFF =           0.0000
          EXT-INFLOW =           0.0000            EXT-INFLOW =           0.0000
         EXT-OUTFLOW =           0.0000           EXT-OUTFLOW =           0.0000
             STORAGE =       2.7756E-16               STORAGE =           0.0000
            CONSTANT =           0.0000              CONSTANT =           0.0000

           TOTAL OUT =       13824.0000             TOTAL OUT =          43.2000

            IN - OUT =           0.0000              IN - OUT =           0.0000

 PERCENT DISCREPANCY =           0.00     PERCENT DISCREPANCY =           0.00



  MASS BUDGET FOR ENTIRE MODEL AT END OF TIME STEP   32, STRESS PERIOD   1
  ---------------------------------------------------------------------------------------------------

     CUMULATIVE MASS      M       RATES FOR THIS TIME STEP      M/T          PACKAGE NAME    
     ------------------                 ------------------------                     ----------------

           IN:                                      IN:
           ---                                      ---
     STORAGE-AQUEOUS =       7.4857E-14       STORAGE-AQUEOUS =       5.5582E-16     MST             
               RCH-1 =           0.0000                 RCH-1 =           0.0000     SSM             
               CHD-1 =           0.0000                 CHD-1 =           0.0000     SSM             
     FLOW-CORRECTION =       3.4014E-07       FLOW-CORRECTION =       1.3986E-09                     
                 SFT =       13824.0000                   SFT =          43.2000     SFR-1           

            TOTAL IN =       13824.0000              TOTAL IN =          43.2000

          OUT:                                     OUT:
          ----                                     ----
     STORAGE-AQUEOUS =       13823.9999       STORAGE-AQUEOUS =          43.2000     MST             
               RCH-1 =           0.0000                 RCH-1 =           0.0000     SSM             
               CHD-1 =       9.8547E-81                 CHD-1 =       8.1335E-82     SSM             
     FLOW-CORRECTION =       7.3815E-05       FLOW-CORRECTION =       4.5697E-07                     
                 SFT =           0.0000                   SFT =           0.0000     SFR-1           

           TOTAL OUT =       13824.0000             TOTAL OUT =          43.2000

            IN - OUT =       5.8418E-06              IN - OUT =       1.5716E-08

 PERCENT DISCREPANCY =           0.00     PERCENT DISCREPANCY =           0.00




         TIME SUMMARY AT END OF TIME STEP   32 IN STRESS PERIOD    1
                    SECONDS     MINUTES      HOURS       DAYS        YEARS
                    -----------------------------------------------------------
   TIME STEP LENGTH 8.64000E+05  14400.      240.00      10.000     2.73785E-02
 STRESS PERIOD TIME 2.76480E+07 4.60800E+05  7680.0      320.00     0.87611    
         TOTAL TIME 2.76480E+07 4.60800E+05  7680.0      320.00     0.87611    


end timestep


start timestep kper="1" kstp="33" mode="normal"


 FMI SETTING BUDGET TERMS FOR KSTP 33 AND KPER 1 TO BUDGET FILE TERMS FROM KSTP 1 AND KPER 1

 FMI SETTING HEAD FOR KSTP 33 AND KPER 1 TO BINARY FILE HEADS FROM KSTP 1 AND KPER 1

 SFR-1 SETTING BUDGET TERMS FOR KSTP 33 AND KPER 1 TO BUDGET FILE TERMS FROM KSTP 1 AND KPER 1

 SFT PACKAGE (SFR-1) FLOW RATES   PERIOD      1   STEP       33
 ----------------------------------------------------------------------------------------
   NUMBER   CELLID                    RATE       NAME                                    
 ----------------------------------------------------------------------------------------
     1      (1,1,169)             21.929568      SFTREACH1                               
     2      (1,1,170)             21.270432      SFTREACH2                               
     3      (1,1,171)             0.0000000      SFTREACH3                               
     4      (1,1,172)             0.0000000      SFTREACH4                               
     5      (1,1,173)             0.0000000      SFTREACH5                               
     6      (1,1,174)             0.0000000      SFTREACH6                               
     7      (1,1,175)             0.0000000      SFTREACH7                               
     8      (1,1,176)             0.0000000      SFTREACH8                               
     9      (1,1,177)             0.0000000      SFTREACH9                               
     10     (1,1,178)             0.0000000      SFTREACH10                              
     11     (1,1,179)             0.0000000      SFTREACH11                              
     12     (1,1,180)             0.0000000      SFTREACH12                              
     13     (1,1,181)             0.0000000      SFTREACH13                              
     14     (1,1,182)             0.0000000      SFTREACH14                              
     15     (1,1,183)             0.0000000      SFTREACH15                              
     16     (1,1,184)             0.0000000      SFTREACH16                              
     17     (1,1,185)             0.0000000      SFTREACH17                              
     18     (1,1,186)             0.0000000      SFTREACH18                              
     19     (1,1,187)             0.0000000      SFTREACH19                              
     20     (1,1,188)             0.0000000      SFTREACH20                              
     21     (1,1,189)             0.0000000      SFTREACH21                              
     22     (1,1,190)             0.0000000      SFTREACH22                              
     23     (1,1,191)             0.0000000      SFTREACH23                              
     24     (1,1,192)             0.0000000      SFTREACH24                              
 ----------------------------------------------------------------------------------------




 SFR-1 PACKAGE - SUMMARY OF FLOWS FOR EACH CONTROL VOLUME   PERIOD      1   STEP       33
 ----------------------------------------------------------------------------------------------------------------------------------------------------------------------
                                                                                                                                                             PERCENT   
   NUMBER      INFLOW      OUTFLOW        GWF        RAINFALL   EVAPORATION     RUNOFF     EXT INFLOW  EXT OUTFLOW    STORAGE      CONSTANT     IN - OUT    DIFFERENCE 
 ----------------------------------------------------------------------------------------------------------------------------------------------------------------------
     1       0.0000      -21.270      -21.930       0.0000       0.0000       0.0000       43.200       0.0000       0.0000       0.0000      -7.10543E-15 -1.64477E-14
     2       21.270       0.0000      -21.270       0.0000       0.0000       0.0000       0.0000       0.0000       0.0000       0.0000       3.55271E-15  1.67026E-14
     3       0.0000       0.0000       0.0000       0.0000       0.0000       0.0000       0.0000       0.0000       0.0000       0.0000       0.0000       0.0000     
     4       0.0000       0.0000       0.0000       0.0000       0.0000       0.0000       0.0000       0.0000       0.0000       0.0000       0.0000       0.0000     
     5       0.0000       0.0000       0.0000       0.0000       0.0000       0.0000       0.0000       0.0000       0.0000       0.0000       0.0000       0.0000     
     6       0.0000       0.0000       0.0000       0.0000       0.0000       0.0000       0.0000       0.0000       0.0000       0.0000       0.0000       0.0000     
     7       0.0000       0.0000       0.0000       0.0000       0.0000       0.0000       0.0000       0.0000       0.0000       0.0000       0.0000       0.0000     
     8       0.0000       0.0000       0.0000       0.0000       0.0000       0.0000       0.0000       0.0000       0.0000       0.0000       0.0000       0.0000     
     9       0.0000       0.0000       0.0000       0.0000       0.0000       0.0000       0.0000       0.0000       0.0000       0.0000       0.0000       0.0000     
     10      0.0000       0.0000       0.0000       0.0000       0.0000       0.0000       0.0000       0.0000       0.0000       0.0000       0.0000       0.0000     
     11      0.0000       0.0000       0.0000       0.0000       0.0000       0.0000       0.0000       0.0000       0.0000       0.0000       0.0000       0.0000     
     12      0.0000       0.0000       0.0000       0.0000       0.0000       0.0000       0.0000       0.0000       0.0000       0.0000       0.0000       0.0000     
     13      0.0000       0.0000       0.0000       0.0000       0.0000       0.0000       0.0000       0.0000       0.0000       0.0000       0.0000       0.0000     
     14      0.0000       0.0000       0.0000       0.0000       0.0000       0.0000       0.0000       0.0000       0.0000       0.0000       0.0000       0.0000     
     15      0.0000       0.0000       0.0000       0.0000       0.0000       0.0000       0.0000       0.0000       0.0000       0.0000       0.0000       0.0000     
     16      0.0000       0.0000       0.0000       0.0000       0.0000       0.0000       0.0000       0.0000       0.0000       0.0000       0.0000       0.0000     
     17      0.0000       0.0000       0.0000       0.0000       0.0000       0.0000       0.0000       0.0000       0.0000       0.0000       0.0000       0.0000     
     18      0.0000       0.0000       0.0000       0.0000       0.0000       0.0000       0.0000       0.0000       0.0000       0.0000       0.0000       0.0000     
     19      0.0000       0.0000       0.0000       0.0000       0.0000       0.0000       0.0000       0.0000       0.0000       0.0000       0.0000       0.0000     
     20      0.0000       0.0000       0.0000       0.0000       0.0000       0.0000       0.0000       0.0000       0.0000       0.0000       0.0000       0.0000     
     21      0.0000       0.0000       0.0000       0.0000       0.0000       0.0000       0.0000       0.0000       0.0000       0.0000       0.0000       0.0000     
     22      0.0000       0.0000       0.0000       0.0000       0.0000       0.0000       0.0000       0.0000       0.0000       0.0000       0.0000       0.0000     
     23      0.0000       0.0000       0.0000       0.0000       0.0000       0.0000       0.0000       0.0000       0.0000       0.0000       0.0000       0.0000     
     24      0.0000       0.0000       0.0000       0.0000       0.0000       0.0000       0.0000       0.0000       0.0000       0.0000       0.0000       0.0000     
 ----------------------------------------------------------------------------------------------------------------------------------------------------------------------




  SFR-1 BUDGET FOR ENTIRE MODEL AT END OF TIME STEP   33, STRESS PERIOD   1
  ------------------------------------------------------------------------------

     CUMULATIVE SFR-1      M       RATES FOR THIS TIME STEP      M/T
     ------------------                 ------------------------

           IN:                                      IN:
           ---                                      ---
                 GWF =           0.0000                   GWF =           0.0000
            RAINFALL =           0.0000              RAINFALL =           0.0000
         EVAPORATION =           0.0000           EVAPORATION =           0.0000
              RUNOFF =           0.0000                RUNOFF =           0.0000
          EXT-INFLOW =       14256.0000            EXT-INFLOW =          43.2000
         EXT-OUTFLOW =           0.0000           EXT-OUTFLOW =           0.0000
             STORAGE =           0.0000               STORAGE =           0.0000
            CONSTANT =           0.0000              CONSTANT =           0.0000

            TOTAL IN =       14256.0000              TOTAL IN =          43.2000

          OUT:                                     OUT:
          ----                                     ----
                 GWF =       14256.0000                   GWF =          43.2000
            RAINFALL =           0.0000              RAINFALL =           0.0000
         EVAPORATION =           0.0000           EVAPORATION =           0.0000
              RUNOFF =           0.0000                RUNOFF =           0.0000
          EXT-INFLOW =           0.0000            EXT-INFLOW =           0.0000
         EXT-OUTFLOW =           0.0000           EXT-OUTFLOW =           0.0000
             STORAGE =       2.7756E-16               STORAGE =           0.0000
            CONSTANT =           0.0000              CONSTANT =           0.0000

           TOTAL OUT =       14256.0000             TOTAL OUT =          43.2000

            IN - OUT =           0.0000              IN - OUT =           0.0000

 PERCENT DISCREPANCY =           0.00     PERCENT DISCREPANCY =           0.00



  MASS BUDGET FOR ENTIRE MODEL AT END OF TIME STEP   33, STRESS PERIOD   1
  ---------------------------------------------------------------------------------------------------

     CUMULATIVE MASS      M       RATES FOR THIS TIME STEP      M/T          PACKAGE NAME    
     ------------------                 ------------------------                     ----------------

           IN:                                      IN:
           ---                                      ---
     STORAGE-AQUEOUS =       8.0415E-14       STORAGE-AQUEOUS =       5.5582E-16     MST             
               RCH-1 =           0.0000                 RCH-1 =           0.0000     SSM             
               CHD-1 =           0.0000                 CHD-1 =           0.0000     SSM             
     FLOW-CORRECTION =       3.5498E-07       FLOW-CORRECTION =       1.4841E-09                     
                 SFT =       14256.0000                   SFT =          43.2000     SFR-1           

            TOTAL IN =       14256.0000              TOTAL IN =          43.2000

          OUT:                                     OUT:
          ----                                     ----
     STORAGE-AQUEOUS =       14255.9999       STORAGE-AQUEOUS =          43.2000     MST             
               RCH-1 =           0.0000                 RCH-1 =           0.0000     SSM             
               CHD-1 =       5.4874E-80                 CHD-1 =       4.5020E-81     SSM             
     FLOW-CORRECTION =       7.8518E-05       FLOW-CORRECTION =       4.7025E-07                     
                 SFT =           0.0000                   SFT =           0.0000     SFR-1           

           TOTAL OUT =       14256.0000             TOTAL OUT =          43.2000

            IN - OUT =       6.0010E-06              IN - OUT =       1.5917E-08

 PERCENT DISCREPANCY =           0.00     PERCENT DISCREPANCY =           0.00




         TIME SUMMARY AT END OF TIME STEP   33 IN STRESS PERIOD    1
                    SECONDS     MINUTES      HOURS       DAYS        YEARS
                    -----------------------------------------------------------
   TIME STEP LENGTH 8.64000E+05  14400.      240.00      10.000     2.73785E-02
 STRESS PERIOD TIME 2.85120E+07 4.75200E+05  7920.0      330.00     0.90349    
         TOTAL TIME 2.85120E+07 4.75200E+05  7920.0      330.00     0.90349    


end timestep


start timestep kper="1" kstp="34" mode="normal"


 FMI SETTING BUDGET TERMS FOR KSTP 34 AND KPER 1 TO BUDGET FILE TERMS FROM KSTP 1 AND KPER 1

 FMI SETTING HEAD FOR KSTP 34 AND KPER 1 TO BINARY FILE HEADS FROM KSTP 1 AND KPER 1

 SFR-1 SETTING BUDGET TERMS FOR KSTP 34 AND KPER 1 TO BUDGET FILE TERMS FROM KSTP 1 AND KPER 1

 SFT PACKAGE (SFR-1) FLOW RATES   PERIOD      1   STEP       34
 ----------------------------------------------------------------------------------------
   NUMBER   CELLID                    RATE       NAME                                    
 ----------------------------------------------------------------------------------------
     1      (1,1,169)             21.929568      SFTREACH1                               
     2      (1,1,170)             21.270432      SFTREACH2                               
     3      (1,1,171)             0.0000000      SFTREACH3                               
     4      (1,1,172)             0.0000000      SFTREACH4                               
     5      (1,1,173)             0.0000000      SFTREACH5                               
     6      (1,1,174)             0.0000000      SFTREACH6                               
     7      (1,1,175)             0.0000000      SFTREACH7                               
     8      (1,1,176)             0.0000000      SFTREACH8                               
     9      (1,1,177)             0.0000000      SFTREACH9                               
     10     (1,1,178)             0.0000000      SFTREACH10                              
     11     (1,1,179)             0.0000000      SFTREACH11                              
     12     (1,1,180)             0.0000000      SFTREACH12                              
     13     (1,1,181)             0.0000000      SFTREACH13                              
     14     (1,1,182)             0.0000000      SFTREACH14                              
     15     (1,1,183)             0.0000000      SFTREACH15                              
     16     (1,1,184)             0.0000000      SFTREACH16                              
     17     (1,1,185)             0.0000000      SFTREACH17                              
     18     (1,1,186)             0.0000000      SFTREACH18                              
     19     (1,1,187)             0.0000000      SFTREACH19                              
     20     (1,1,188)             0.0000000      SFTREACH20                              
     21     (1,1,189)             0.0000000      SFTREACH21                              
     22     (1,1,190)             0.0000000      SFTREACH22                              
     23     (1,1,191)             0.0000000      SFTREACH23                              
     24     (1,1,192)             0.0000000      SFTREACH24                              
 ----------------------------------------------------------------------------------------




 SFR-1 PACKAGE - SUMMARY OF FLOWS FOR EACH CONTROL VOLUME   PERIOD      1   STEP       34
 ----------------------------------------------------------------------------------------------------------------------------------------------------------------------
                                                                                                                                                             PERCENT   
   NUMBER      INFLOW      OUTFLOW        GWF        RAINFALL   EVAPORATION     RUNOFF     EXT INFLOW  EXT OUTFLOW    STORAGE      CONSTANT     IN - OUT    DIFFERENCE 
 ----------------------------------------------------------------------------------------------------------------------------------------------------------------------
     1       0.0000      -21.270      -21.930       0.0000       0.0000       0.0000       43.200       0.0000       0.0000       0.0000      -7.10543E-15 -1.64477E-14
     2       21.270       0.0000      -21.270       0.0000       0.0000       0.0000       0.0000       0.0000       0.0000       0.0000       3.55271E-15  1.67026E-14
     3       0.0000       0.0000       0.0000       0.0000       0.0000       0.0000       0.0000       0.0000       0.0000       0.0000       0.0000       0.0000     
     4       0.0000       0.0000       0.0000       0.0000       0.0000       0.0000       0.0000       0.0000       0.0000       0.0000       0.0000       0.0000     
     5       0.0000       0.0000       0.0000       0.0000       0.0000       0.0000       0.0000       0.0000       0.0000       0.0000       0.0000       0.0000     
     6       0.0000       0.0000       0.0000       0.0000       0.0000       0.0000       0.0000       0.0000       0.0000       0.0000       0.0000       0.0000     
     7       0.0000       0.0000       0.0000       0.0000       0.0000       0.0000       0.0000       0.0000       0.0000       0.0000       0.0000       0.0000     
     8       0.0000       0.0000       0.0000       0.0000       0.0000       0.0000       0.0000       0.0000       0.0000       0.0000       0.0000       0.0000     
     9       0.0000       0.0000       0.0000       0.0000       0.0000       0.0000       0.0000       0.0000       0.0000       0.0000       0.0000       0.0000     
     10      0.0000       0.0000       0.0000       0.0000       0.0000       0.0000       0.0000       0.0000       0.0000       0.0000       0.0000       0.0000     
     11      0.0000       0.0000       0.0000       0.0000       0.0000       0.0000       0.0000       0.0000       0.0000       0.0000       0.0000       0.0000     
     12      0.0000       0.0000       0.0000       0.0000       0.0000       0.0000       0.0000       0.0000       0.0000       0.0000       0.0000       0.0000     
     13      0.0000       0.0000       0.0000       0.0000       0.0000       0.0000       0.0000       0.0000       0.0000       0.0000       0.0000       0.0000     
     14      0.0000       0.0000       0.0000       0.0000       0.0000       0.0000       0.0000       0.0000       0.0000       0.0000       0.0000       0.0000     
     15      0.0000       0.0000       0.0000       0.0000       0.0000       0.0000       0.0000       0.0000       0.0000       0.0000       0.0000       0.0000     
     16      0.0000       0.0000       0.0000       0.0000       0.0000       0.0000       0.0000       0.0000       0.0000       0.0000       0.0000       0.0000     
     17      0.0000       0.0000       0.0000       0.0000       0.0000       0.0000       0.0000       0.0000       0.0000       0.0000       0.0000       0.0000     
     18      0.0000       0.0000       0.0000       0.0000       0.0000       0.0000       0.0000       0.0000       0.0000       0.0000       0.0000       0.0000     
     19      0.0000       0.0000       0.0000       0.0000       0.0000       0.0000       0.0000       0.0000       0.0000       0.0000       0.0000       0.0000     
     20      0.0000       0.0000       0.0000       0.0000       0.0000       0.0000       0.0000       0.0000       0.0000       0.0000       0.0000       0.0000     
     21      0.0000       0.0000       0.0000       0.0000       0.0000       0.0000       0.0000       0.0000       0.0000       0.0000       0.0000       0.0000     
     22      0.0000       0.0000       0.0000       0.0000       0.0000       0.0000       0.0000       0.0000       0.0000       0.0000       0.0000       0.0000     
     23      0.0000       0.0000       0.0000       0.0000       0.0000       0.0000       0.0000       0.0000       0.0000       0.0000       0.0000       0.0000     
     24      0.0000       0.0000       0.0000       0.0000       0.0000       0.0000       0.0000       0.0000       0.0000       0.0000       0.0000       0.0000     
 ----------------------------------------------------------------------------------------------------------------------------------------------------------------------




  SFR-1 BUDGET FOR ENTIRE MODEL AT END OF TIME STEP   34, STRESS PERIOD   1
  ------------------------------------------------------------------------------

     CUMULATIVE SFR-1      M       RATES FOR THIS TIME STEP      M/T
     ------------------                 ------------------------

           IN:                                      IN:
           ---                                      ---
                 GWF =           0.0000                   GWF =           0.0000
            RAINFALL =           0.0000              RAINFALL =           0.0000
         EVAPORATION =           0.0000           EVAPORATION =           0.0000
              RUNOFF =           0.0000                RUNOFF =           0.0000
          EXT-INFLOW =       14688.0000            EXT-INFLOW =          43.2000
         EXT-OUTFLOW =           0.0000           EXT-OUTFLOW =           0.0000
             STORAGE =           0.0000               STORAGE =           0.0000
            CONSTANT =           0.0000              CONSTANT =           0.0000

            TOTAL IN =       14688.0000              TOTAL IN =          43.2000

          OUT:                                     OUT:
          ----                                     ----
                 GWF =       14688.0000                   GWF =          43.2000
            RAINFALL =           0.0000              RAINFALL =           0.0000
         EVAPORATION =           0.0000           EVAPORATION =           0.0000
              RUNOFF =           0.0000                RUNOFF =           0.0000
          EXT-INFLOW =           0.0000            EXT-INFLOW =           0.0000
         EXT-OUTFLOW =           0.0000           EXT-OUTFLOW =           0.0000
             STORAGE =       2.7756E-16               STORAGE =           0.0000
            CONSTANT =           0.0000              CONSTANT =           0.0000

           TOTAL OUT =       14688.0000             TOTAL OUT =          43.2000

            IN - OUT =           0.0000              IN - OUT =           0.0000

 PERCENT DISCREPANCY =           0.00     PERCENT DISCREPANCY =           0.00



  MASS BUDGET FOR ENTIRE MODEL AT END OF TIME STEP   34, STRESS PERIOD   1
  ---------------------------------------------------------------------------------------------------

     CUMULATIVE MASS      M       RATES FOR THIS TIME STEP      M/T          PACKAGE NAME    
     ------------------                 ------------------------                     ----------------

           IN:                                      IN:
           ---                                      ---
     STORAGE-AQUEOUS =       8.5973E-14       STORAGE-AQUEOUS =       5.5582E-16     MST             
               RCH-1 =           0.0000                 RCH-1 =           0.0000     SSM             
               CHD-1 =           0.0000                 CHD-1 =           0.0000     SSM             
     FLOW-CORRECTION =       3.7083E-07       FLOW-CORRECTION =       1.5841E-09                     
                 SFT =       14688.0000                   SFT =          43.2000     SFR-1           

            TOTAL IN =       14688.0000              TOTAL IN =          43.2000

          OUT:                                     OUT:
          ----                                     ----
     STORAGE-AQUEOUS =       14687.9999       STORAGE-AQUEOUS =          43.2000     MST             
               RCH-1 =           0.0000                 RCH-1 =           0.0000     SSM             
               CHD-1 =       2.9746E-79                 CHD-1 =       2.4259E-80     SSM             
     FLOW-CORRECTION =       8.3351E-05       FLOW-CORRECTION =       4.8327E-07                     
                 SFT =           0.0000                   SFT =           0.0000     SFR-1           

           TOTAL OUT =       14688.0000             TOTAL OUT =          43.2000

            IN - OUT =       6.1635E-06              IN - OUT =       1.6255E-08

 PERCENT DISCREPANCY =           0.00     PERCENT DISCREPANCY =           0.00




         TIME SUMMARY AT END OF TIME STEP   34 IN STRESS PERIOD    1
                    SECONDS     MINUTES      HOURS       DAYS        YEARS
                    -----------------------------------------------------------
   TIME STEP LENGTH 8.64000E+05  14400.      240.00      10.000     2.73785E-02
 STRESS PERIOD TIME 2.93760E+07 4.89600E+05  8160.0      340.00     0.93087    
         TOTAL TIME 2.93760E+07 4.89600E+05  8160.0      340.00     0.93087    


end timestep


start timestep kper="1" kstp="35" mode="normal"


 FMI SETTING BUDGET TERMS FOR KSTP 35 AND KPER 1 TO BUDGET FILE TERMS FROM KSTP 1 AND KPER 1

 FMI SETTING HEAD FOR KSTP 35 AND KPER 1 TO BINARY FILE HEADS FROM KSTP 1 AND KPER 1

 SFR-1 SETTING BUDGET TERMS FOR KSTP 35 AND KPER 1 TO BUDGET FILE TERMS FROM KSTP 1 AND KPER 1

 SFT PACKAGE (SFR-1) FLOW RATES   PERIOD      1   STEP       35
 ----------------------------------------------------------------------------------------
   NUMBER   CELLID                    RATE       NAME                                    
 ----------------------------------------------------------------------------------------
     1      (1,1,169)             21.929568      SFTREACH1                               
     2      (1,1,170)             21.270432      SFTREACH2                               
     3      (1,1,171)             0.0000000      SFTREACH3                               
     4      (1,1,172)             0.0000000      SFTREACH4                               
     5      (1,1,173)             0.0000000      SFTREACH5                               
     6      (1,1,174)             0.0000000      SFTREACH6                               
     7      (1,1,175)             0.0000000      SFTREACH7                               
     8      (1,1,176)             0.0000000      SFTREACH8                               
     9      (1,1,177)             0.0000000      SFTREACH9                               
     10     (1,1,178)             0.0000000      SFTREACH10                              
     11     (1,1,179)             0.0000000      SFTREACH11                              
     12     (1,1,180)             0.0000000      SFTREACH12                              
     13     (1,1,181)             0.0000000      SFTREACH13                              
     14     (1,1,182)             0.0000000      SFTREACH14                              
     15     (1,1,183)             0.0000000      SFTREACH15                              
     16     (1,1,184)             0.0000000      SFTREACH16                              
     17     (1,1,185)             0.0000000      SFTREACH17                              
     18     (1,1,186)             0.0000000      SFTREACH18                              
     19     (1,1,187)             0.0000000      SFTREACH19                              
     20     (1,1,188)             0.0000000      SFTREACH20                              
     21     (1,1,189)             0.0000000      SFTREACH21                              
     22     (1,1,190)             0.0000000      SFTREACH22                              
     23     (1,1,191)             0.0000000      SFTREACH23                              
     24     (1,1,192)             0.0000000      SFTREACH24                              
 ----------------------------------------------------------------------------------------




 SFR-1 PACKAGE - SUMMARY OF FLOWS FOR EACH CONTROL VOLUME   PERIOD      1   STEP       35
 ----------------------------------------------------------------------------------------------------------------------------------------------------------------------
                                                                                                                                                             PERCENT   
   NUMBER      INFLOW      OUTFLOW        GWF        RAINFALL   EVAPORATION     RUNOFF     EXT INFLOW  EXT OUTFLOW    STORAGE      CONSTANT     IN - OUT    DIFFERENCE 
 ----------------------------------------------------------------------------------------------------------------------------------------------------------------------
     1       0.0000      -21.270      -21.930       0.0000       0.0000       0.0000       43.200       0.0000       0.0000       0.0000      -7.10543E-15 -1.64477E-14
     2       21.270       0.0000      -21.270       0.0000       0.0000       0.0000       0.0000       0.0000       0.0000       0.0000       3.55271E-15  1.67026E-14
     3       0.0000       0.0000       0.0000       0.0000       0.0000       0.0000       0.0000       0.0000       0.0000       0.0000       0.0000       0.0000     
     4       0.0000       0.0000       0.0000       0.0000       0.0000       0.0000       0.0000       0.0000       0.0000       0.0000       0.0000       0.0000     
     5       0.0000       0.0000       0.0000       0.0000       0.0000       0.0000       0.0000       0.0000       0.0000       0.0000       0.0000       0.0000     
     6       0.0000       0.0000       0.0000       0.0000       0.0000       0.0000       0.0000       0.0000       0.0000       0.0000       0.0000       0.0000     
     7       0.0000       0.0000       0.0000       0.0000       0.0000       0.0000       0.0000       0.0000       0.0000       0.0000       0.0000       0.0000     
     8       0.0000       0.0000       0.0000       0.0000       0.0000       0.0000       0.0000       0.0000       0.0000       0.0000       0.0000       0.0000     
     9       0.0000       0.0000       0.0000       0.0000       0.0000       0.0000       0.0000       0.0000       0.0000       0.0000       0.0000       0.0000     
     10      0.0000       0.0000       0.0000       0.0000       0.0000       0.0000       0.0000       0.0000       0.0000       0.0000       0.0000       0.0000     
     11      0.0000       0.0000       0.0000       0.0000       0.0000       0.0000       0.0000       0.0000       0.0000       0.0000       0.0000       0.0000     
     12      0.0000       0.0000       0.0000       0.0000       0.0000       0.0000       0.0000       0.0000       0.0000       0.0000       0.0000       0.0000     
     13      0.0000       0.0000       0.0000       0.0000       0.0000       0.0000       0.0000       0.0000       0.0000       0.0000       0.0000       0.0000     
     14      0.0000       0.0000       0.0000       0.0000       0.0000       0.0000       0.0000       0.0000       0.0000       0.0000       0.0000       0.0000     
     15      0.0000       0.0000       0.0000       0.0000       0.0000       0.0000       0.0000       0.0000       0.0000       0.0000       0.0000       0.0000     
     16      0.0000       0.0000       0.0000       0.0000       0.0000       0.0000       0.0000       0.0000       0.0000       0.0000       0.0000       0.0000     
     17      0.0000       0.0000       0.0000       0.0000       0.0000       0.0000       0.0000       0.0000       0.0000       0.0000       0.0000       0.0000     
     18      0.0000       0.0000       0.0000       0.0000       0.0000       0.0000       0.0000       0.0000       0.0000       0.0000       0.0000       0.0000     
     19      0.0000       0.0000       0.0000       0.0000       0.0000       0.0000       0.0000       0.0000       0.0000       0.0000       0.0000       0.0000     
     20      0.0000       0.0000       0.0000       0.0000       0.0000       0.0000       0.0000       0.0000       0.0000       0.0000       0.0000       0.0000     
     21      0.0000       0.0000       0.0000       0.0000       0.0000       0.0000       0.0000       0.0000       0.0000       0.0000       0.0000       0.0000     
     22      0.0000       0.0000       0.0000       0.0000       0.0000       0.0000       0.0000       0.0000       0.0000       0.0000       0.0000       0.0000     
     23      0.0000       0.0000       0.0000       0.0000       0.0000       0.0000       0.0000       0.0000       0.0000       0.0000       0.0000       0.0000     
     24      0.0000       0.0000       0.0000       0.0000       0.0000       0.0000       0.0000       0.0000       0.0000       0.0000       0.0000       0.0000     
 ----------------------------------------------------------------------------------------------------------------------------------------------------------------------




  SFR-1 BUDGET FOR ENTIRE MODEL AT END OF TIME STEP   35, STRESS PERIOD   1
  ------------------------------------------------------------------------------

     CUMULATIVE SFR-1      M       RATES FOR THIS TIME STEP      M/T
     ------------------                 ------------------------

           IN:                                      IN:
           ---                                      ---
                 GWF =           0.0000                   GWF =           0.0000
            RAINFALL =           0.0000              RAINFALL =           0.0000
         EVAPORATION =           0.0000           EVAPORATION =           0.0000
              RUNOFF =           0.0000                RUNOFF =           0.0000
          EXT-INFLOW =       15120.0000            EXT-INFLOW =          43.2000
         EXT-OUTFLOW =           0.0000           EXT-OUTFLOW =           0.0000
             STORAGE =           0.0000               STORAGE =           0.0000
            CONSTANT =           0.0000              CONSTANT =           0.0000

            TOTAL IN =       15120.0000              TOTAL IN =          43.2000

          OUT:                                     OUT:
          ----                                     ----
                 GWF =       15120.0000                   GWF =          43.2000
            RAINFALL =           0.0000              RAINFALL =           0.0000
         EVAPORATION =           0.0000           EVAPORATION =           0.0000
              RUNOFF =           0.0000                RUNOFF =           0.0000
          EXT-INFLOW =           0.0000            EXT-INFLOW =           0.0000
         EXT-OUTFLOW =           0.0000           EXT-OUTFLOW =           0.0000
             STORAGE =       2.7756E-16               STORAGE =           0.0000
            CONSTANT =           0.0000              CONSTANT =           0.0000

           TOTAL OUT =       15120.0000             TOTAL OUT =          43.2000

            IN - OUT =           0.0000              IN - OUT =           0.0000

 PERCENT DISCREPANCY =           0.00     PERCENT DISCREPANCY =           0.00



  MASS BUDGET FOR ENTIRE MODEL AT END OF TIME STEP   35, STRESS PERIOD   1
  ---------------------------------------------------------------------------------------------------

     CUMULATIVE MASS      M       RATES FOR THIS TIME STEP      M/T          PACKAGE NAME    
     ------------------                 ------------------------                     ----------------

           IN:                                      IN:
           ---                                      ---
     STORAGE-AQUEOUS =       9.1531E-14       STORAGE-AQUEOUS =       5.5582E-16     MST             
               RCH-1 =           0.0000                 RCH-1 =           0.0000     SSM             
               CHD-1 =           0.0000                 CHD-1 =           0.0000     SSM             
     FLOW-CORRECTION =       3.8783E-07       FLOW-CORRECTION =       1.7005E-09                     
                 SFT =       15120.0000                   SFT =          43.2000     SFR-1           

            TOTAL IN =       15120.0000              TOTAL IN =          43.2000

          OUT:                                     OUT:
          ----                                     ----
     STORAGE-AQUEOUS =       15119.9999       STORAGE-AQUEOUS =          43.2000     MST             
               RCH-1 =           0.0000                 RCH-1 =           0.0000     SSM             
               CHD-1 =       1.5712E-78                 CHD-1 =       1.2737E-79     SSM             
     FLOW-CORRECTION =       8.8311E-05       FLOW-CORRECTION =       4.9605E-07                     
                 SFT =           0.0000                   SFT =           0.0000     SFR-1           

           TOTAL OUT =       15120.0000             TOTAL OUT =          43.2000

            IN - OUT =       6.3316E-06              IN - OUT =       1.6808E-08

 PERCENT DISCREPANCY =           0.00     PERCENT DISCREPANCY =           0.00




         TIME SUMMARY AT END OF TIME STEP   35 IN STRESS PERIOD    1
                    SECONDS     MINUTES      HOURS       DAYS        YEARS
                    -----------------------------------------------------------
   TIME STEP LENGTH 8.64000E+05  14400.      240.00      10.000     2.73785E-02
 STRESS PERIOD TIME 3.02400E+07 5.04000E+05  8400.0      350.00     0.95825    
         TOTAL TIME 3.02400E+07 5.04000E+05  8400.0      350.00     0.95825    


end timestep


start timestep kper="1" kstp="36" mode="normal"


 FMI SETTING BUDGET TERMS FOR KSTP 36 AND KPER 1 TO BUDGET FILE TERMS FROM KSTP 1 AND KPER 1

 FMI SETTING HEAD FOR KSTP 36 AND KPER 1 TO BINARY FILE HEADS FROM KSTP 1 AND KPER 1

 SFR-1 SETTING BUDGET TERMS FOR KSTP 36 AND KPER 1 TO BUDGET FILE TERMS FROM KSTP 1 AND KPER 1

 SFT PACKAGE (SFR-1) FLOW RATES   PERIOD      1   STEP       36
 ----------------------------------------------------------------------------------------
   NUMBER   CELLID                    RATE       NAME                                    
 ----------------------------------------------------------------------------------------
     1      (1,1,169)             21.929568      SFTREACH1                               
     2      (1,1,170)             21.270432      SFTREACH2                               
     3      (1,1,171)             0.0000000      SFTREACH3                               
     4      (1,1,172)             0.0000000      SFTREACH4                               
     5      (1,1,173)             0.0000000      SFTREACH5                               
     6      (1,1,174)             0.0000000      SFTREACH6                               
     7      (1,1,175)             0.0000000      SFTREACH7                               
     8      (1,1,176)             0.0000000      SFTREACH8                               
     9      (1,1,177)             0.0000000      SFTREACH9                               
     10     (1,1,178)             0.0000000      SFTREACH10                              
     11     (1,1,179)             0.0000000      SFTREACH11                              
     12     (1,1,180)             0.0000000      SFTREACH12                              
     13     (1,1,181)             0.0000000      SFTREACH13                              
     14     (1,1,182)             0.0000000      SFTREACH14                              
     15     (1,1,183)             0.0000000      SFTREACH15                              
     16     (1,1,184)             0.0000000      SFTREACH16                              
     17     (1,1,185)             0.0000000      SFTREACH17                              
     18     (1,1,186)             0.0000000      SFTREACH18                              
     19     (1,1,187)             0.0000000      SFTREACH19                              
     20     (1,1,188)             0.0000000      SFTREACH20                              
     21     (1,1,189)             0.0000000      SFTREACH21                              
     22     (1,1,190)             0.0000000      SFTREACH22                              
     23     (1,1,191)             0.0000000      SFTREACH23                              
     24     (1,1,192)             0.0000000      SFTREACH24                              
 ----------------------------------------------------------------------------------------




 SFR-1 PACKAGE - SUMMARY OF FLOWS FOR EACH CONTROL VOLUME   PERIOD      1   STEP       36
 ----------------------------------------------------------------------------------------------------------------------------------------------------------------------
                                                                                                                                                             PERCENT   
   NUMBER      INFLOW      OUTFLOW        GWF        RAINFALL   EVAPORATION     RUNOFF     EXT INFLOW  EXT OUTFLOW    STORAGE      CONSTANT     IN - OUT    DIFFERENCE 
 ----------------------------------------------------------------------------------------------------------------------------------------------------------------------
     1       0.0000      -21.270      -21.930       0.0000       0.0000       0.0000       43.200       0.0000       0.0000       0.0000      -7.10543E-15 -1.64477E-14
     2       21.270       0.0000      -21.270       0.0000       0.0000       0.0000       0.0000       0.0000       0.0000       0.0000       3.55271E-15  1.67026E-14
     3       0.0000       0.0000       0.0000       0.0000       0.0000       0.0000       0.0000       0.0000       0.0000       0.0000       0.0000       0.0000     
     4       0.0000       0.0000       0.0000       0.0000       0.0000       0.0000       0.0000       0.0000       0.0000       0.0000       0.0000       0.0000     
     5       0.0000       0.0000       0.0000       0.0000       0.0000       0.0000       0.0000       0.0000       0.0000       0.0000       0.0000       0.0000     
     6       0.0000       0.0000       0.0000       0.0000       0.0000       0.0000       0.0000       0.0000       0.0000       0.0000       0.0000       0.0000     
     7       0.0000       0.0000       0.0000       0.0000       0.0000       0.0000       0.0000       0.0000       0.0000       0.0000       0.0000       0.0000     
     8       0.0000       0.0000       0.0000       0.0000       0.0000       0.0000       0.0000       0.0000       0.0000       0.0000       0.0000       0.0000     
     9       0.0000       0.0000       0.0000       0.0000       0.0000       0.0000       0.0000       0.0000       0.0000       0.0000       0.0000       0.0000     
     10      0.0000       0.0000       0.0000       0.0000       0.0000       0.0000       0.0000       0.0000       0.0000       0.0000       0.0000       0.0000     
     11      0.0000       0.0000       0.0000       0.0000       0.0000       0.0000       0.0000       0.0000       0.0000       0.0000       0.0000       0.0000     
     12      0.0000       0.0000       0.0000       0.0000       0.0000       0.0000       0.0000       0.0000       0.0000       0.0000       0.0000       0.0000     
     13      0.0000       0.0000       0.0000       0.0000       0.0000       0.0000       0.0000       0.0000       0.0000       0.0000       0.0000       0.0000     
     14      0.0000       0.0000       0.0000       0.0000       0.0000       0.0000       0.0000       0.0000       0.0000       0.0000       0.0000       0.0000     
     15      0.0000       0.0000       0.0000       0.0000       0.0000       0.0000       0.0000       0.0000       0.0000       0.0000       0.0000       0.0000     
     16      0.0000       0.0000       0.0000       0.0000       0.0000       0.0000       0.0000       0.0000       0.0000       0.0000       0.0000       0.0000     
     17      0.0000       0.0000       0.0000       0.0000       0.0000       0.0000       0.0000       0.0000       0.0000       0.0000       0.0000       0.0000     
     18      0.0000       0.0000       0.0000       0.0000       0.0000       0.0000       0.0000       0.0000       0.0000       0.0000       0.0000       0.0000     
     19      0.0000       0.0000       0.0000       0.0000       0.0000       0.0000       0.0000       0.0000       0.0000       0.0000       0.0000       0.0000     
     20      0.0000       0.0000       0.0000       0.0000       0.0000       0.0000       0.0000       0.0000       0.0000       0.0000       0.0000       0.0000     
     21      0.0000       0.0000       0.0000       0.0000       0.0000       0.0000       0.0000       0.0000       0.0000       0.0000       0.0000       0.0000     
     22      0.0000       0.0000       0.0000       0.0000       0.0000       0.0000       0.0000       0.0000       0.0000       0.0000       0.0000       0.0000     
     23      0.0000       0.0000       0.0000       0.0000       0.0000       0.0000       0.0000       0.0000       0.0000       0.0000       0.0000       0.0000     
     24      0.0000       0.0000       0.0000       0.0000       0.0000       0.0000       0.0000       0.0000       0.0000       0.0000       0.0000       0.0000     
 ----------------------------------------------------------------------------------------------------------------------------------------------------------------------




  SFR-1 BUDGET FOR ENTIRE MODEL AT END OF TIME STEP   36, STRESS PERIOD   1
  ------------------------------------------------------------------------------

     CUMULATIVE SFR-1      M       RATES FOR THIS TIME STEP      M/T
     ------------------                 ------------------------

           IN:                                      IN:
           ---                                      ---
                 GWF =           0.0000                   GWF =           0.0000
            RAINFALL =           0.0000              RAINFALL =           0.0000
         EVAPORATION =           0.0000           EVAPORATION =           0.0000
              RUNOFF =           0.0000                RUNOFF =           0.0000
          EXT-INFLOW =       15552.0000            EXT-INFLOW =          43.2000
         EXT-OUTFLOW =           0.0000           EXT-OUTFLOW =           0.0000
             STORAGE =           0.0000               STORAGE =           0.0000
            CONSTANT =           0.0000              CONSTANT =           0.0000

            TOTAL IN =       15552.0000              TOTAL IN =          43.2000

          OUT:                                     OUT:
          ----                                     ----
                 GWF =       15552.0000                   GWF =          43.2000
            RAINFALL =           0.0000              RAINFALL =           0.0000
         EVAPORATION =           0.0000           EVAPORATION =           0.0000
              RUNOFF =           0.0000                RUNOFF =           0.0000
          EXT-INFLOW =           0.0000            EXT-INFLOW =           0.0000
         EXT-OUTFLOW =           0.0000           EXT-OUTFLOW =           0.0000
             STORAGE =       2.7756E-16               STORAGE =           0.0000
            CONSTANT =           0.0000              CONSTANT =           0.0000

           TOTAL OUT =       15552.0000             TOTAL OUT =          43.2000

            IN - OUT =           0.0000              IN - OUT =           0.0000

 PERCENT DISCREPANCY =           0.00     PERCENT DISCREPANCY =           0.00



  MASS BUDGET FOR ENTIRE MODEL AT END OF TIME STEP   36, STRESS PERIOD   1
  ---------------------------------------------------------------------------------------------------

     CUMULATIVE MASS      M       RATES FOR THIS TIME STEP      M/T          PACKAGE NAME    
     ------------------                 ------------------------                     ----------------

           IN:                                      IN:
           ---                                      ---
     STORAGE-AQUEOUS =       9.7090E-14       STORAGE-AQUEOUS =       5.5582E-16     MST             
               RCH-1 =           0.0000                 RCH-1 =           0.0000     SSM             
               CHD-1 =           0.0000                 CHD-1 =           0.0000     SSM             
     FLOW-CORRECTION =       4.0618E-07       FLOW-CORRECTION =       1.8352E-09                     
                 SFT =       15552.0000                   SFT =          43.2000     SFR-1           

            TOTAL IN =       15552.0000              TOTAL IN =          43.2000

          OUT:                                     OUT:
          ----                                     ----
     STORAGE-AQUEOUS =       15551.9999       STORAGE-AQUEOUS =          43.2000     MST             
               RCH-1 =           0.0000                 RCH-1 =           0.0000     SSM             
               CHD-1 =       8.0932E-78                 CHD-1 =       6.5220E-79     SSM             
     FLOW-CORRECTION =       9.3397E-05       FLOW-CORRECTION =       5.0859E-07                     
                 SFT =           0.0000                   SFT =           0.0000     SFR-1           

           TOTAL OUT =       15552.0000             TOTAL OUT =          43.2000

            IN - OUT =       6.5090E-06              IN - OUT =       1.7740E-08

 PERCENT DISCREPANCY =           0.00     PERCENT DISCREPANCY =           0.00




         TIME SUMMARY AT END OF TIME STEP   36 IN STRESS PERIOD    1
                    SECONDS     MINUTES      HOURS       DAYS        YEARS
                    -----------------------------------------------------------
   TIME STEP LENGTH 8.64000E+05  14400.      240.00      10.000     2.73785E-02
 STRESS PERIOD TIME 3.11040E+07 5.18400E+05  8640.0      360.00     0.98563    
         TOTAL TIME 3.11040E+07 5.18400E+05  8640.0      360.00     0.98563    


end timestep


start timestep kper="1" kstp="37" mode="normal"


 FMI SETTING BUDGET TERMS FOR KSTP 37 AND KPER 1 TO BUDGET FILE TERMS FROM KSTP 1 AND KPER 1

 FMI SETTING HEAD FOR KSTP 37 AND KPER 1 TO BINARY FILE HEADS FROM KSTP 1 AND KPER 1

 SFR-1 SETTING BUDGET TERMS FOR KSTP 37 AND KPER 1 TO BUDGET FILE TERMS FROM KSTP 1 AND KPER 1

 SFT PACKAGE (SFR-1) FLOW RATES   PERIOD      1   STEP       37
 ----------------------------------------------------------------------------------------
   NUMBER   CELLID                    RATE       NAME                                    
 ----------------------------------------------------------------------------------------
     1      (1,1,169)             21.929568      SFTREACH1                               
     2      (1,1,170)             21.270432      SFTREACH2                               
     3      (1,1,171)             0.0000000      SFTREACH3                               
     4      (1,1,172)             0.0000000      SFTREACH4                               
     5      (1,1,173)             0.0000000      SFTREACH5                               
     6      (1,1,174)             0.0000000      SFTREACH6                               
     7      (1,1,175)             0.0000000      SFTREACH7                               
     8      (1,1,176)             0.0000000      SFTREACH8                               
     9      (1,1,177)             0.0000000      SFTREACH9                               
     10     (1,1,178)             0.0000000      SFTREACH10                              
     11     (1,1,179)             0.0000000      SFTREACH11                              
     12     (1,1,180)             0.0000000      SFTREACH12                              
     13     (1,1,181)             0.0000000      SFTREACH13                              
     14     (1,1,182)             0.0000000      SFTREACH14                              
     15     (1,1,183)             0.0000000      SFTREACH15                              
     16     (1,1,184)             0.0000000      SFTREACH16                              
     17     (1,1,185)             0.0000000      SFTREACH17                              
     18     (1,1,186)             0.0000000      SFTREACH18                              
     19     (1,1,187)             0.0000000      SFTREACH19                              
     20     (1,1,188)             0.0000000      SFTREACH20                              
     21     (1,1,189)             0.0000000      SFTREACH21                              
     22     (1,1,190)             0.0000000      SFTREACH22                              
     23     (1,1,191)             0.0000000      SFTREACH23                              
     24     (1,1,192)             0.0000000      SFTREACH24                              
 ----------------------------------------------------------------------------------------




 SFR-1 PACKAGE - SUMMARY OF FLOWS FOR EACH CONTROL VOLUME   PERIOD      1   STEP       37
 ----------------------------------------------------------------------------------------------------------------------------------------------------------------------
                                                                                                                                                             PERCENT   
   NUMBER      INFLOW      OUTFLOW        GWF        RAINFALL   EVAPORATION     RUNOFF     EXT INFLOW  EXT OUTFLOW    STORAGE      CONSTANT     IN - OUT    DIFFERENCE 
 ----------------------------------------------------------------------------------------------------------------------------------------------------------------------
     1       0.0000      -21.270      -21.930       0.0000       0.0000       0.0000       43.200       0.0000       0.0000       0.0000      -7.10543E-15 -1.64477E-14
     2       21.270       0.0000      -21.270       0.0000       0.0000       0.0000       0.0000       0.0000       0.0000       0.0000       3.55271E-15  1.67026E-14
     3       0.0000       0.0000       0.0000       0.0000       0.0000       0.0000       0.0000       0.0000       0.0000       0.0000       0.0000       0.0000     
     4       0.0000       0.0000       0.0000       0.0000       0.0000       0.0000       0.0000       0.0000       0.0000       0.0000       0.0000       0.0000     
     5       0.0000       0.0000       0.0000       0.0000       0.0000       0.0000       0.0000       0.0000       0.0000       0.0000       0.0000       0.0000     
     6       0.0000       0.0000       0.0000       0.0000       0.0000       0.0000       0.0000       0.0000       0.0000       0.0000       0.0000       0.0000     
     7       0.0000       0.0000       0.0000       0.0000       0.0000       0.0000       0.0000       0.0000       0.0000       0.0000       0.0000       0.0000     
     8       0.0000       0.0000       0.0000       0.0000       0.0000       0.0000       0.0000       0.0000       0.0000       0.0000       0.0000       0.0000     
     9       0.0000       0.0000       0.0000       0.0000       0.0000       0.0000       0.0000       0.0000       0.0000       0.0000       0.0000       0.0000     
     10      0.0000       0.0000       0.0000       0.0000       0.0000       0.0000       0.0000       0.0000       0.0000       0.0000       0.0000       0.0000     
     11      0.0000       0.0000       0.0000       0.0000       0.0000       0.0000       0.0000       0.0000       0.0000       0.0000       0.0000       0.0000     
     12      0.0000       0.0000       0.0000       0.0000       0.0000       0.0000       0.0000       0.0000       0.0000       0.0000       0.0000       0.0000     
     13      0.0000       0.0000       0.0000       0.0000       0.0000       0.0000       0.0000       0.0000       0.0000       0.0000       0.0000       0.0000     
     14      0.0000       0.0000       0.0000       0.0000       0.0000       0.0000       0.0000       0.0000       0.0000       0.0000       0.0000       0.0000     
     15      0.0000       0.0000       0.0000       0.0000       0.0000       0.0000       0.0000       0.0000       0.0000       0.0000       0.0000       0.0000     
     16      0.0000       0.0000       0.0000       0.0000       0.0000       0.0000       0.0000       0.0000       0.0000       0.0000       0.0000       0.0000     
     17      0.0000       0.0000       0.0000       0.0000       0.0000       0.0000       0.0000       0.0000       0.0000       0.0000       0.0000       0.0000     
     18      0.0000       0.0000       0.0000       0.0000       0.0000       0.0000       0.0000       0.0000       0.0000       0.0000       0.0000       0.0000     
     19      0.0000       0.0000       0.0000       0.0000       0.0000       0.0000       0.0000       0.0000       0.0000       0.0000       0.0000       0.0000     
     20      0.0000       0.0000       0.0000       0.0000       0.0000       0.0000       0.0000       0.0000       0.0000       0.0000       0.0000       0.0000     
     21      0.0000       0.0000       0.0000       0.0000       0.0000       0.0000       0.0000       0.0000       0.0000       0.0000       0.0000       0.0000     
     22      0.0000       0.0000       0.0000       0.0000       0.0000       0.0000       0.0000       0.0000       0.0000       0.0000       0.0000       0.0000     
     23      0.0000       0.0000       0.0000       0.0000       0.0000       0.0000       0.0000       0.0000       0.0000       0.0000       0.0000       0.0000     
     24      0.0000       0.0000       0.0000       0.0000       0.0000       0.0000       0.0000       0.0000       0.0000       0.0000       0.0000       0.0000     
 ----------------------------------------------------------------------------------------------------------------------------------------------------------------------




  SFR-1 BUDGET FOR ENTIRE MODEL AT END OF TIME STEP   37, STRESS PERIOD   1
  ------------------------------------------------------------------------------

     CUMULATIVE SFR-1      M       RATES FOR THIS TIME STEP      M/T
     ------------------                 ------------------------

           IN:                                      IN:
           ---                                      ---
                 GWF =           0.0000                   GWF =           0.0000
            RAINFALL =           0.0000              RAINFALL =           0.0000
         EVAPORATION =           0.0000           EVAPORATION =           0.0000
              RUNOFF =           0.0000                RUNOFF =           0.0000
          EXT-INFLOW =       15984.0000            EXT-INFLOW =          43.2000
         EXT-OUTFLOW =           0.0000           EXT-OUTFLOW =           0.0000
             STORAGE =           0.0000               STORAGE =           0.0000
            CONSTANT =           0.0000              CONSTANT =           0.0000

            TOTAL IN =       15984.0000              TOTAL IN =          43.2000

          OUT:                                     OUT:
          ----                                     ----
                 GWF =       15984.0000                   GWF =          43.2000
            RAINFALL =           0.0000              RAINFALL =           0.0000
         EVAPORATION =           0.0000           EVAPORATION =           0.0000
              RUNOFF =           0.0000                RUNOFF =           0.0000
          EXT-INFLOW =           0.0000            EXT-INFLOW =           0.0000
         EXT-OUTFLOW =           0.0000           EXT-OUTFLOW =           0.0000
             STORAGE =       2.7756E-16               STORAGE =           0.0000
            CONSTANT =           0.0000              CONSTANT =           0.0000

           TOTAL OUT =       15984.0000             TOTAL OUT =          43.2000

            IN - OUT =           0.0000              IN - OUT =           0.0000

 PERCENT DISCREPANCY =           0.00     PERCENT DISCREPANCY =           0.00



  MASS BUDGET FOR ENTIRE MODEL AT END OF TIME STEP   37, STRESS PERIOD   1
  ---------------------------------------------------------------------------------------------------

     CUMULATIVE MASS      M       RATES FOR THIS TIME STEP      M/T          PACKAGE NAME    
     ------------------                 ------------------------                     ----------------

           IN:                                      IN:
           ---                                      ---
     STORAGE-AQUEOUS =       1.0265E-13       STORAGE-AQUEOUS =       5.5582E-16     MST             
               RCH-1 =           0.0000                 RCH-1 =           0.0000     SSM             
               CHD-1 =           0.0000                 CHD-1 =           0.0000     SSM             
     FLOW-CORRECTION =       4.2609E-07       FLOW-CORRECTION =       1.9905E-09                     
                 SFT =       15984.0000                   SFT =          43.2000     SFR-1           

            TOTAL IN =       15984.0000              TOTAL IN =          43.2000

          OUT:                                     OUT:
          ----                                     ----
     STORAGE-AQUEOUS =       15983.9999       STORAGE-AQUEOUS =          43.2000     MST             
               RCH-1 =           0.0000                 RCH-1 =           0.0000     SSM             
               CHD-1 =       4.0688E-77                 CHD-1 =       3.2595E-78     SSM             
     FLOW-CORRECTION =       9.8606E-05       FLOW-CORRECTION =       5.2089E-07                     
                 SFT =           0.0000                   SFT =           0.0000     SFR-1           

           TOTAL OUT =       15984.0000             TOTAL OUT =          43.2000

            IN - OUT =       6.7040E-06              IN - OUT =       1.9500E-08

 PERCENT DISCREPANCY =           0.00     PERCENT DISCREPANCY =           0.00




         TIME SUMMARY AT END OF TIME STEP   37 IN STRESS PERIOD    1
                    SECONDS     MINUTES      HOURS       DAYS        YEARS
                    -----------------------------------------------------------
   TIME STEP LENGTH 8.64000E+05  14400.      240.00      10.000     2.73785E-02
 STRESS PERIOD TIME 3.19680E+07 5.32800E+05  8880.0      370.00      1.0130    
         TOTAL TIME 3.19680E+07 5.32800E+05  8880.0      370.00      1.0130    


end timestep


start timestep kper="1" kstp="38" mode="normal"


 FMI SETTING BUDGET TERMS FOR KSTP 38 AND KPER 1 TO BUDGET FILE TERMS FROM KSTP 1 AND KPER 1

 FMI SETTING HEAD FOR KSTP 38 AND KPER 1 TO BINARY FILE HEADS FROM KSTP 1 AND KPER 1

 SFR-1 SETTING BUDGET TERMS FOR KSTP 38 AND KPER 1 TO BUDGET FILE TERMS FROM KSTP 1 AND KPER 1

 SFT PACKAGE (SFR-1) FLOW RATES   PERIOD      1   STEP       38
 ----------------------------------------------------------------------------------------
   NUMBER   CELLID                    RATE       NAME                                    
 ----------------------------------------------------------------------------------------
     1      (1,1,169)             21.929568      SFTREACH1                               
     2      (1,1,170)             21.270432      SFTREACH2                               
     3      (1,1,171)             0.0000000      SFTREACH3                               
     4      (1,1,172)             0.0000000      SFTREACH4                               
     5      (1,1,173)             0.0000000      SFTREACH5                               
     6      (1,1,174)             0.0000000      SFTREACH6                               
     7      (1,1,175)             0.0000000      SFTREACH7                               
     8      (1,1,176)             0.0000000      SFTREACH8                               
     9      (1,1,177)             0.0000000      SFTREACH9                               
     10     (1,1,178)             0.0000000      SFTREACH10                              
     11     (1,1,179)             0.0000000      SFTREACH11                              
     12     (1,1,180)             0.0000000      SFTREACH12                              
     13     (1,1,181)             0.0000000      SFTREACH13                              
     14     (1,1,182)             0.0000000      SFTREACH14                              
     15     (1,1,183)             0.0000000      SFTREACH15                              
     16     (1,1,184)             0.0000000      SFTREACH16                              
     17     (1,1,185)             0.0000000      SFTREACH17                              
     18     (1,1,186)             0.0000000      SFTREACH18                              
     19     (1,1,187)             0.0000000      SFTREACH19                              
     20     (1,1,188)             0.0000000      SFTREACH20                              
     21     (1,1,189)             0.0000000      SFTREACH21                              
     22     (1,1,190)             0.0000000      SFTREACH22                              
     23     (1,1,191)             0.0000000      SFTREACH23                              
     24     (1,1,192)             0.0000000      SFTREACH24                              
 ----------------------------------------------------------------------------------------




 SFR-1 PACKAGE - SUMMARY OF FLOWS FOR EACH CONTROL VOLUME   PERIOD      1   STEP       38
 ----------------------------------------------------------------------------------------------------------------------------------------------------------------------
                                                                                                                                                             PERCENT   
   NUMBER      INFLOW      OUTFLOW        GWF        RAINFALL   EVAPORATION     RUNOFF     EXT INFLOW  EXT OUTFLOW    STORAGE      CONSTANT     IN - OUT    DIFFERENCE 
 ----------------------------------------------------------------------------------------------------------------------------------------------------------------------
     1       0.0000      -21.270      -21.930       0.0000       0.0000       0.0000       43.200       0.0000       0.0000       0.0000      -7.10543E-15 -1.64477E-14
     2       21.270       0.0000      -21.270       0.0000       0.0000       0.0000       0.0000       0.0000       0.0000       0.0000       3.55271E-15  1.67026E-14
     3       0.0000       0.0000       0.0000       0.0000       0.0000       0.0000       0.0000       0.0000       0.0000       0.0000       0.0000       0.0000     
     4       0.0000       0.0000       0.0000       0.0000       0.0000       0.0000       0.0000       0.0000       0.0000       0.0000       0.0000       0.0000     
     5       0.0000       0.0000       0.0000       0.0000       0.0000       0.0000       0.0000       0.0000       0.0000       0.0000       0.0000       0.0000     
     6       0.0000       0.0000       0.0000       0.0000       0.0000       0.0000       0.0000       0.0000       0.0000       0.0000       0.0000       0.0000     
     7       0.0000       0.0000       0.0000       0.0000       0.0000       0.0000       0.0000       0.0000       0.0000       0.0000       0.0000       0.0000     
     8       0.0000       0.0000       0.0000       0.0000       0.0000       0.0000       0.0000       0.0000       0.0000       0.0000       0.0000       0.0000     
     9       0.0000       0.0000       0.0000       0.0000       0.0000       0.0000       0.0000       0.0000       0.0000       0.0000       0.0000       0.0000     
     10      0.0000       0.0000       0.0000       0.0000       0.0000       0.0000       0.0000       0.0000       0.0000       0.0000       0.0000       0.0000     
     11      0.0000       0.0000       0.0000       0.0000       0.0000       0.0000       0.0000       0.0000       0.0000       0.0000       0.0000       0.0000     
     12      0.0000       0.0000       0.0000       0.0000       0.0000       0.0000       0.0000       0.0000       0.0000       0.0000       0.0000       0.0000     
     13      0.0000       0.0000       0.0000       0.0000       0.0000       0.0000       0.0000       0.0000       0.0000       0.0000       0.0000       0.0000     
     14      0.0000       0.0000       0.0000       0.0000       0.0000       0.0000       0.0000       0.0000       0.0000       0.0000       0.0000       0.0000     
     15      0.0000       0.0000       0.0000       0.0000       0.0000       0.0000       0.0000       0.0000       0.0000       0.0000       0.0000       0.0000     
     16      0.0000       0.0000       0.0000       0.0000       0.0000       0.0000       0.0000       0.0000       0.0000       0.0000       0.0000       0.0000     
     17      0.0000       0.0000       0.0000       0.0000       0.0000       0.0000       0.0000       0.0000       0.0000       0.0000       0.0000       0.0000     
     18      0.0000       0.0000       0.0000       0.0000       0.0000       0.0000       0.0000       0.0000       0.0000       0.0000       0.0000       0.0000     
     19      0.0000       0.0000       0.0000       0.0000       0.0000       0.0000       0.0000       0.0000       0.0000       0.0000       0.0000       0.0000     
     20      0.0000       0.0000       0.0000       0.0000       0.0000       0.0000       0.0000       0.0000       0.0000       0.0000       0.0000       0.0000     
     21      0.0000       0.0000       0.0000       0.0000       0.0000       0.0000       0.0000       0.0000       0.0000       0.0000       0.0000       0.0000     
     22      0.0000       0.0000       0.0000       0.0000       0.0000       0.0000       0.0000       0.0000       0.0000       0.0000       0.0000       0.0000     
     23      0.0000       0.0000       0.0000       0.0000       0.0000       0.0000       0.0000       0.0000       0.0000       0.0000       0.0000       0.0000     
     24      0.0000       0.0000       0.0000       0.0000       0.0000       0.0000       0.0000       0.0000       0.0000       0.0000       0.0000       0.0000     
 ----------------------------------------------------------------------------------------------------------------------------------------------------------------------




  SFR-1 BUDGET FOR ENTIRE MODEL AT END OF TIME STEP   38, STRESS PERIOD   1
  ------------------------------------------------------------------------------

     CUMULATIVE SFR-1      M       RATES FOR THIS TIME STEP      M/T
     ------------------                 ------------------------

           IN:                                      IN:
           ---                                      ---
                 GWF =           0.0000                   GWF =           0.0000
            RAINFALL =           0.0000              RAINFALL =           0.0000
         EVAPORATION =           0.0000           EVAPORATION =           0.0000
              RUNOFF =           0.0000                RUNOFF =           0.0000
          EXT-INFLOW =       16416.0000            EXT-INFLOW =          43.2000
         EXT-OUTFLOW =           0.0000           EXT-OUTFLOW =           0.0000
             STORAGE =           0.0000               STORAGE =           0.0000
            CONSTANT =           0.0000              CONSTANT =           0.0000

            TOTAL IN =       16416.0000              TOTAL IN =          43.2000

          OUT:                                     OUT:
          ----                                     ----
                 GWF =       16416.0000                   GWF =          43.2000
            RAINFALL =           0.0000              RAINFALL =           0.0000
         EVAPORATION =           0.0000           EVAPORATION =           0.0000
              RUNOFF =           0.0000                RUNOFF =           0.0000
          EXT-INFLOW =           0.0000            EXT-INFLOW =           0.0000
         EXT-OUTFLOW =           0.0000           EXT-OUTFLOW =           0.0000
             STORAGE =       2.7756E-16               STORAGE =           0.0000
            CONSTANT =           0.0000              CONSTANT =           0.0000

           TOTAL OUT =       16416.0000             TOTAL OUT =          43.2000

            IN - OUT =           0.0000              IN - OUT =           0.0000

 PERCENT DISCREPANCY =           0.00     PERCENT DISCREPANCY =           0.00



  MASS BUDGET FOR ENTIRE MODEL AT END OF TIME STEP   38, STRESS PERIOD   1
  ---------------------------------------------------------------------------------------------------

     CUMULATIVE MASS      M       RATES FOR THIS TIME STEP      M/T          PACKAGE NAME    
     ------------------                 ------------------------                     ----------------

           IN:                                      IN:
           ---                                      ---
     STORAGE-AQUEOUS =       1.0821E-13       STORAGE-AQUEOUS =       5.5582E-16     MST             
               RCH-1 =           0.0000                 RCH-1 =           0.0000     SSM             
               CHD-1 =           0.0000                 CHD-1 =           0.0000     SSM             
     FLOW-CORRECTION =       4.4778E-07       FLOW-CORRECTION =       2.1689E-09                     
                 SFT =       16416.0000                   SFT =          43.2000     SFR-1           

            TOTAL IN =       16416.0000              TOTAL IN =          43.2000

          OUT:                                     OUT:
          ----                                     ----
     STORAGE-AQUEOUS =       16415.9999       STORAGE-AQUEOUS =          43.2000     MST             
               RCH-1 =           0.0000                 RCH-1 =           0.0000     SSM             
               CHD-1 =       1.9980E-76                 CHD-1 =       1.5911E-77     SSM             
     FLOW-CORRECTION =       1.0394E-04       FLOW-CORRECTION =       5.3297E-07                     
                 SFT =           0.0000                   SFT =           0.0000     SFR-1           

           TOTAL OUT =       16416.0000             TOTAL OUT =          43.2000

            IN - OUT =       6.9420E-06              IN - OUT =       2.3801E-08

 PERCENT DISCREPANCY =           0.00     PERCENT DISCREPANCY =           0.00




         TIME SUMMARY AT END OF TIME STEP   38 IN STRESS PERIOD    1
                    SECONDS     MINUTES      HOURS       DAYS        YEARS
                    -----------------------------------------------------------
   TIME STEP LENGTH 8.64000E+05  14400.      240.00      10.000     2.73785E-02
 STRESS PERIOD TIME 3.28320E+07 5.47200E+05  9120.0      380.00      1.0404    
         TOTAL TIME 3.28320E+07 5.47200E+05  9120.0      380.00      1.0404    


end timestep


start timestep kper="1" kstp="39" mode="normal"


 FMI SETTING BUDGET TERMS FOR KSTP 39 AND KPER 1 TO BUDGET FILE TERMS FROM KSTP 1 AND KPER 1

 FMI SETTING HEAD FOR KSTP 39 AND KPER 1 TO BINARY FILE HEADS FROM KSTP 1 AND KPER 1

 SFR-1 SETTING BUDGET TERMS FOR KSTP 39 AND KPER 1 TO BUDGET FILE TERMS FROM KSTP 1 AND KPER 1

 SFT PACKAGE (SFR-1) FLOW RATES   PERIOD      1   STEP       39
 ----------------------------------------------------------------------------------------
   NUMBER   CELLID                    RATE       NAME                                    
 ----------------------------------------------------------------------------------------
     1      (1,1,169)             21.929568      SFTREACH1                               
     2      (1,1,170)             21.270432      SFTREACH2                               
     3      (1,1,171)             0.0000000      SFTREACH3                               
     4      (1,1,172)             0.0000000      SFTREACH4                               
     5      (1,1,173)             0.0000000      SFTREACH5                               
     6      (1,1,174)             0.0000000      SFTREACH6                               
     7      (1,1,175)             0.0000000      SFTREACH7                               
     8      (1,1,176)             0.0000000      SFTREACH8                               
     9      (1,1,177)             0.0000000      SFTREACH9                               
     10     (1,1,178)             0.0000000      SFTREACH10                              
     11     (1,1,179)             0.0000000      SFTREACH11                              
     12     (1,1,180)             0.0000000      SFTREACH12                              
     13     (1,1,181)             0.0000000      SFTREACH13                              
     14     (1,1,182)             0.0000000      SFTREACH14                              
     15     (1,1,183)             0.0000000      SFTREACH15                              
     16     (1,1,184)             0.0000000      SFTREACH16                              
     17     (1,1,185)             0.0000000      SFTREACH17                              
     18     (1,1,186)             0.0000000      SFTREACH18                              
     19     (1,1,187)             0.0000000      SFTREACH19                              
     20     (1,1,188)             0.0000000      SFTREACH20                              
     21     (1,1,189)             0.0000000      SFTREACH21                              
     22     (1,1,190)             0.0000000      SFTREACH22                              
     23     (1,1,191)             0.0000000      SFTREACH23                              
     24     (1,1,192)             0.0000000      SFTREACH24                              
 ----------------------------------------------------------------------------------------




 SFR-1 PACKAGE - SUMMARY OF FLOWS FOR EACH CONTROL VOLUME   PERIOD      1   STEP       39
 ----------------------------------------------------------------------------------------------------------------------------------------------------------------------
                                                                                                                                                             PERCENT   
   NUMBER      INFLOW      OUTFLOW        GWF        RAINFALL   EVAPORATION     RUNOFF     EXT INFLOW  EXT OUTFLOW    STORAGE      CONSTANT     IN - OUT    DIFFERENCE 
 ----------------------------------------------------------------------------------------------------------------------------------------------------------------------
     1       0.0000      -21.270      -21.930       0.0000       0.0000       0.0000       43.200       0.0000       0.0000       0.0000      -7.10543E-15 -1.64477E-14
     2       21.270       0.0000      -21.270       0.0000       0.0000       0.0000       0.0000       0.0000       0.0000       0.0000       3.55271E-15  1.67026E-14
     3       0.0000       0.0000       0.0000       0.0000       0.0000       0.0000       0.0000       0.0000       0.0000       0.0000       0.0000       0.0000     
     4       0.0000       0.0000       0.0000       0.0000       0.0000       0.0000       0.0000       0.0000       0.0000       0.0000       0.0000       0.0000     
     5       0.0000       0.0000       0.0000       0.0000       0.0000       0.0000       0.0000       0.0000       0.0000       0.0000       0.0000       0.0000     
     6       0.0000       0.0000       0.0000       0.0000       0.0000       0.0000       0.0000       0.0000       0.0000       0.0000       0.0000       0.0000     
     7       0.0000       0.0000       0.0000       0.0000       0.0000       0.0000       0.0000       0.0000       0.0000       0.0000       0.0000       0.0000     
     8       0.0000       0.0000       0.0000       0.0000       0.0000       0.0000       0.0000       0.0000       0.0000       0.0000       0.0000       0.0000     
     9       0.0000       0.0000       0.0000       0.0000       0.0000       0.0000       0.0000       0.0000       0.0000       0.0000       0.0000       0.0000     
     10      0.0000       0.0000       0.0000       0.0000       0.0000       0.0000       0.0000       0.0000       0.0000       0.0000       0.0000       0.0000     
     11      0.0000       0.0000       0.0000       0.0000       0.0000       0.0000       0.0000       0.0000       0.0000       0.0000       0.0000       0.0000     
     12      0.0000       0.0000       0.0000       0.0000       0.0000       0.0000       0.0000       0.0000       0.0000       0.0000       0.0000       0.0000     
     13      0.0000       0.0000       0.0000       0.0000       0.0000       0.0000       0.0000       0.0000       0.0000       0.0000       0.0000       0.0000     
     14      0.0000       0.0000       0.0000       0.0000       0.0000       0.0000       0.0000       0.0000       0.0000       0.0000       0.0000       0.0000     
     15      0.0000       0.0000       0.0000       0.0000       0.0000       0.0000       0.0000       0.0000       0.0000       0.0000       0.0000       0.0000     
     16      0.0000       0.0000       0.0000       0.0000       0.0000       0.0000       0.0000       0.0000       0.0000       0.0000       0.0000       0.0000     
     17      0.0000       0.0000       0.0000       0.0000       0.0000       0.0000       0.0000       0.0000       0.0000       0.0000       0.0000       0.0000     
     18      0.0000       0.0000       0.0000       0.0000       0.0000       0.0000       0.0000       0.0000       0.0000       0.0000       0.0000       0.0000     
     19      0.0000       0.0000       0.0000       0.0000       0.0000       0.0000       0.0000       0.0000       0.0000       0.0000       0.0000       0.0000     
     20      0.0000       0.0000       0.0000       0.0000       0.0000       0.0000       0.0000       0.0000       0.0000       0.0000       0.0000       0.0000     
     21      0.0000       0.0000       0.0000       0.0000       0.0000       0.0000       0.0000       0.0000       0.0000       0.0000       0.0000       0.0000     
     22      0.0000       0.0000       0.0000       0.0000       0.0000       0.0000       0.0000       0.0000       0.0000       0.0000       0.0000       0.0000     
     23      0.0000       0.0000       0.0000       0.0000       0.0000       0.0000       0.0000       0.0000       0.0000       0.0000       0.0000       0.0000     
     24      0.0000       0.0000       0.0000       0.0000       0.0000       0.0000       0.0000       0.0000       0.0000       0.0000       0.0000       0.0000     
 ----------------------------------------------------------------------------------------------------------------------------------------------------------------------




  SFR-1 BUDGET FOR ENTIRE MODEL AT END OF TIME STEP   39, STRESS PERIOD   1
  ------------------------------------------------------------------------------

     CUMULATIVE SFR-1      M       RATES FOR THIS TIME STEP      M/T
     ------------------                 ------------------------

           IN:                                      IN:
           ---                                      ---
                 GWF =           0.0000                   GWF =           0.0000
            RAINFALL =           0.0000              RAINFALL =           0.0000
         EVAPORATION =           0.0000           EVAPORATION =           0.0000
              RUNOFF =           0.0000                RUNOFF =           0.0000
          EXT-INFLOW =       16848.0000            EXT-INFLOW =          43.2000
         EXT-OUTFLOW =           0.0000           EXT-OUTFLOW =           0.0000
             STORAGE =           0.0000               STORAGE =           0.0000
            CONSTANT =           0.0000              CONSTANT =           0.0000

            TOTAL IN =       16848.0000              TOTAL IN =          43.2000

          OUT:                                     OUT:
          ----                                     ----
                 GWF =       16848.0000                   GWF =          43.2000
            RAINFALL =           0.0000              RAINFALL =           0.0000
         EVAPORATION =           0.0000           EVAPORATION =           0.0000
              RUNOFF =           0.0000                RUNOFF =           0.0000
          EXT-INFLOW =           0.0000            EXT-INFLOW =           0.0000
         EXT-OUTFLOW =           0.0000           EXT-OUTFLOW =           0.0000
             STORAGE =       2.7756E-16               STORAGE =           0.0000
            CONSTANT =           0.0000              CONSTANT =           0.0000

           TOTAL OUT =       16848.0000             TOTAL OUT =          43.2000

            IN - OUT =           0.0000              IN - OUT =           0.0000

 PERCENT DISCREPANCY =           0.00     PERCENT DISCREPANCY =           0.00



  MASS BUDGET FOR ENTIRE MODEL AT END OF TIME STEP   39, STRESS PERIOD   1
  ---------------------------------------------------------------------------------------------------

     CUMULATIVE MASS      M       RATES FOR THIS TIME STEP      M/T          PACKAGE NAME    
     ------------------                 ------------------------                     ----------------

           IN:                                      IN:
           ---                                      ---
     STORAGE-AQUEOUS =       1.1376E-13       STORAGE-AQUEOUS =       5.5582E-16     MST             
               RCH-1 =           0.0000                 RCH-1 =           0.0000     SSM             
               CHD-1 =           0.0000                 CHD-1 =           0.0000     SSM             
     FLOW-CORRECTION =       4.7151E-07       FLOW-CORRECTION =       2.3732E-09                     
                 SFT =       16848.0000                   SFT =          43.2000     SFR-1           

            TOTAL IN =       16848.0000              TOTAL IN =          43.2000

          OUT:                                     OUT:
          ----                                     ----
     STORAGE-AQUEOUS =       16847.9999       STORAGE-AQUEOUS =          43.2000     MST             
               RCH-1 =           0.0000                 RCH-1 =           0.0000     SSM             
               CHD-1 =       9.5896E-76                 CHD-1 =       7.5916E-77     SSM             
     FLOW-CORRECTION =       1.0938E-04       FLOW-CORRECTION =       5.4483E-07                     
                 SFT =           0.0000                   SFT =           0.0000     SFR-1           

           TOTAL OUT =       16848.0000             TOTAL OUT =          43.2000

            IN - OUT =       7.3428E-06              IN - OUT =       4.0076E-08

 PERCENT DISCREPANCY =           0.00     PERCENT DISCREPANCY =           0.00




         TIME SUMMARY AT END OF TIME STEP   39 IN STRESS PERIOD    1
                    SECONDS     MINUTES      HOURS       DAYS        YEARS
                    -----------------------------------------------------------
   TIME STEP LENGTH 8.64000E+05  14400.      240.00      10.000     2.73785E-02
 STRESS PERIOD TIME 3.36960E+07 5.61600E+05  9360.0      390.00      1.0678    
         TOTAL TIME 3.36960E+07 5.61600E+05  9360.0      390.00      1.0678    


end timestep


start timestep kper="1" kstp="40" mode="normal"


 FMI SETTING BUDGET TERMS FOR KSTP 40 AND KPER 1 TO BUDGET FILE TERMS FROM KSTP 1 AND KPER 1

 FMI SETTING HEAD FOR KSTP 40 AND KPER 1 TO BINARY FILE HEADS FROM KSTP 1 AND KPER 1

 SFR-1 SETTING BUDGET TERMS FOR KSTP 40 AND KPER 1 TO BUDGET FILE TERMS FROM KSTP 1 AND KPER 1

 SFT PACKAGE (SFR-1) FLOW RATES   PERIOD      1   STEP       40
 ----------------------------------------------------------------------------------------
   NUMBER   CELLID                    RATE       NAME                                    
 ----------------------------------------------------------------------------------------
     1      (1,1,169)             21.929568      SFTREACH1                               
     2      (1,1,170)             21.270432      SFTREACH2                               
     3      (1,1,171)             0.0000000      SFTREACH3                               
     4      (1,1,172)             0.0000000      SFTREACH4                               
     5      (1,1,173)             0.0000000      SFTREACH5                               
     6      (1,1,174)             0.0000000      SFTREACH6                               
     7      (1,1,175)             0.0000000      SFTREACH7                               
     8      (1,1,176)             0.0000000      SFTREACH8                               
     9      (1,1,177)             0.0000000      SFTREACH9                               
     10     (1,1,178)             0.0000000      SFTREACH10                              
     11     (1,1,179)             0.0000000      SFTREACH11                              
     12     (1,1,180)             0.0000000      SFTREACH12                              
     13     (1,1,181)             0.0000000      SFTREACH13                              
     14     (1,1,182)             0.0000000      SFTREACH14                              
     15     (1,1,183)             0.0000000      SFTREACH15                              
     16     (1,1,184)             0.0000000      SFTREACH16                              
     17     (1,1,185)             0.0000000      SFTREACH17                              
     18     (1,1,186)             0.0000000      SFTREACH18                              
     19     (1,1,187)             0.0000000      SFTREACH19                              
     20     (1,1,188)             0.0000000      SFTREACH20                              
     21     (1,1,189)             0.0000000      SFTREACH21                              
     22     (1,1,190)             0.0000000      SFTREACH22                              
     23     (1,1,191)             0.0000000      SFTREACH23                              
     24     (1,1,192)             0.0000000      SFTREACH24                              
 ----------------------------------------------------------------------------------------




 SFR-1 PACKAGE - SUMMARY OF FLOWS FOR EACH CONTROL VOLUME   PERIOD      1   STEP       40
 ----------------------------------------------------------------------------------------------------------------------------------------------------------------------
                                                                                                                                                             PERCENT   
   NUMBER      INFLOW      OUTFLOW        GWF        RAINFALL   EVAPORATION     RUNOFF     EXT INFLOW  EXT OUTFLOW    STORAGE      CONSTANT     IN - OUT    DIFFERENCE 
 ----------------------------------------------------------------------------------------------------------------------------------------------------------------------
     1       0.0000      -21.270      -21.930       0.0000       0.0000       0.0000       43.200       0.0000       0.0000       0.0000      -7.10543E-15 -1.64477E-14
     2       21.270       0.0000      -21.270       0.0000       0.0000       0.0000       0.0000       0.0000       0.0000       0.0000       3.55271E-15  1.67026E-14
     3       0.0000       0.0000       0.0000       0.0000       0.0000       0.0000       0.0000       0.0000       0.0000       0.0000       0.0000       0.0000     
     4       0.0000       0.0000       0.0000       0.0000       0.0000       0.0000       0.0000       0.0000       0.0000       0.0000       0.0000       0.0000     
     5       0.0000       0.0000       0.0000       0.0000       0.0000       0.0000       0.0000       0.0000       0.0000       0.0000       0.0000       0.0000     
     6       0.0000       0.0000       0.0000       0.0000       0.0000       0.0000       0.0000       0.0000       0.0000       0.0000       0.0000       0.0000     
     7       0.0000       0.0000       0.0000       0.0000       0.0000       0.0000       0.0000       0.0000       0.0000       0.0000       0.0000       0.0000     
     8       0.0000       0.0000       0.0000       0.0000       0.0000       0.0000       0.0000       0.0000       0.0000       0.0000       0.0000       0.0000     
     9       0.0000       0.0000       0.0000       0.0000       0.0000       0.0000       0.0000       0.0000       0.0000       0.0000       0.0000       0.0000     
     10      0.0000       0.0000       0.0000       0.0000       0.0000       0.0000       0.0000       0.0000       0.0000       0.0000       0.0000       0.0000     
     11      0.0000       0.0000       0.0000       0.0000       0.0000       0.0000       0.0000       0.0000       0.0000       0.0000       0.0000       0.0000     
     12      0.0000       0.0000       0.0000       0.0000       0.0000       0.0000       0.0000       0.0000       0.0000       0.0000       0.0000       0.0000     
     13      0.0000       0.0000       0.0000       0.0000       0.0000       0.0000       0.0000       0.0000       0.0000       0.0000       0.0000       0.0000     
     14      0.0000       0.0000       0.0000       0.0000       0.0000       0.0000       0.0000       0.0000       0.0000       0.0000       0.0000       0.0000     
     15      0.0000       0.0000       0.0000       0.0000       0.0000       0.0000       0.0000       0.0000       0.0000       0.0000       0.0000       0.0000     
     16      0.0000       0.0000       0.0000       0.0000       0.0000       0.0000       0.0000       0.0000       0.0000       0.0000       0.0000       0.0000     
     17      0.0000       0.0000       0.0000       0.0000       0.0000       0.0000       0.0000       0.0000       0.0000       0.0000       0.0000       0.0000     
     18      0.0000       0.0000       0.0000       0.0000       0.0000       0.0000       0.0000       0.0000       0.0000       0.0000       0.0000       0.0000     
     19      0.0000       0.0000       0.0000       0.0000       0.0000       0.0000       0.0000       0.0000       0.0000       0.0000       0.0000       0.0000     
     20      0.0000       0.0000       0.0000       0.0000       0.0000       0.0000       0.0000       0.0000       0.0000       0.0000       0.0000       0.0000     
     21      0.0000       0.0000       0.0000       0.0000       0.0000       0.0000       0.0000       0.0000       0.0000       0.0000       0.0000       0.0000     
     22      0.0000       0.0000       0.0000       0.0000       0.0000       0.0000       0.0000       0.0000       0.0000       0.0000       0.0000       0.0000     
     23      0.0000       0.0000       0.0000       0.0000       0.0000       0.0000       0.0000       0.0000       0.0000       0.0000       0.0000       0.0000     
     24      0.0000       0.0000       0.0000       0.0000       0.0000       0.0000       0.0000       0.0000       0.0000       0.0000       0.0000       0.0000     
 ----------------------------------------------------------------------------------------------------------------------------------------------------------------------



 CONCENTRATION WILL BE SAVED ON UNIT 1024 AT END OF TIME STEP   40, STRESS PERIOD    1


  SFR-1 BUDGET FOR ENTIRE MODEL AT END OF TIME STEP   40, STRESS PERIOD   1
  ------------------------------------------------------------------------------

     CUMULATIVE SFR-1      M       RATES FOR THIS TIME STEP      M/T
     ------------------                 ------------------------

           IN:                                      IN:
           ---                                      ---
                 GWF =           0.0000                   GWF =           0.0000
            RAINFALL =           0.0000              RAINFALL =           0.0000
         EVAPORATION =           0.0000           EVAPORATION =           0.0000
              RUNOFF =           0.0000                RUNOFF =           0.0000
          EXT-INFLOW =       17280.0000            EXT-INFLOW =          43.2000
         EXT-OUTFLOW =           0.0000           EXT-OUTFLOW =           0.0000
             STORAGE =           0.0000               STORAGE =           0.0000
            CONSTANT =           0.0000              CONSTANT =           0.0000

            TOTAL IN =       17280.0000              TOTAL IN =          43.2000

          OUT:                                     OUT:
          ----                                     ----
                 GWF =       17280.0000                   GWF =          43.2000
            RAINFALL =           0.0000              RAINFALL =           0.0000
         EVAPORATION =           0.0000           EVAPORATION =           0.0000
              RUNOFF =           0.0000                RUNOFF =           0.0000
          EXT-INFLOW =           0.0000            EXT-INFLOW =           0.0000
         EXT-OUTFLOW =           0.0000           EXT-OUTFLOW =           0.0000
             STORAGE =       2.7756E-16               STORAGE =           0.0000
            CONSTANT =           0.0000              CONSTANT =           0.0000

           TOTAL OUT =       17280.0000             TOTAL OUT =          43.2000

            IN - OUT =           0.0000              IN - OUT =           0.0000

 PERCENT DISCREPANCY =           0.00     PERCENT DISCREPANCY =           0.00



  MASS BUDGET FOR ENTIRE MODEL AT END OF TIME STEP   40, STRESS PERIOD   1
  ---------------------------------------------------------------------------------------------------

     CUMULATIVE MASS      M       RATES FOR THIS TIME STEP      M/T          PACKAGE NAME    
     ------------------                 ------------------------                     ----------------

           IN:                                      IN:
           ---                                      ---
     STORAGE-AQUEOUS =       1.1932E-13       STORAGE-AQUEOUS =       5.5582E-16     MST             
               RCH-1 =           0.0000                 RCH-1 =           0.0000     SSM             
               CHD-1 =           0.0000                 CHD-1 =           0.0000     SSM             
     FLOW-CORRECTION =       4.9757E-07       FLOW-CORRECTION =       2.6064E-09                     
                 SFT =       17280.0000                   SFT =          43.2000     SFR-1           

            TOTAL IN =       17280.0000              TOTAL IN =          43.2000

          OUT:                                     OUT:
          ----                                     ----
     STORAGE-AQUEOUS =       17279.9999       STORAGE-AQUEOUS =          43.2000     MST             
               RCH-1 =           0.0000                 RCH-1 =           0.0000     SSM             
               CHD-1 =       4.5019E-75                 CHD-1 =       3.5429E-76     SSM             
     FLOW-CORRECTION =       1.1495E-04       FLOW-CORRECTION =       5.5649E-07                     
                 SFT =           0.0000                   SFT =           0.0000     SFR-1           

           TOTAL OUT =       17280.0000             TOTAL OUT =          43.2000

            IN - OUT =       7.3057E-06              IN - OUT =      -3.7100E-09

 PERCENT DISCREPANCY =           0.00     PERCENT DISCREPANCY =          -0.00




         TIME SUMMARY AT END OF TIME STEP   40 IN STRESS PERIOD    1
                    SECONDS     MINUTES      HOURS       DAYS        YEARS
                    -----------------------------------------------------------
   TIME STEP LENGTH 8.64000E+05  14400.      240.00      10.000     2.73785E-02
 STRESS PERIOD TIME 3.45600E+07 5.76000E+05  9600.0      400.00      1.0951    
         TOTAL TIME 3.45600E+07 5.76000E+05  9600.0      400.00      1.0951    


end timestep


start timestep kper="1" kstp="41" mode="normal"


 FMI SETTING BUDGET TERMS FOR KSTP 41 AND KPER 1 TO BUDGET FILE TERMS FROM KSTP 1 AND KPER 1

 FMI SETTING HEAD FOR KSTP 41 AND KPER 1 TO BINARY FILE HEADS FROM KSTP 1 AND KPER 1

 SFR-1 SETTING BUDGET TERMS FOR KSTP 41 AND KPER 1 TO BUDGET FILE TERMS FROM KSTP 1 AND KPER 1

 SFT PACKAGE (SFR-1) FLOW RATES   PERIOD      1   STEP       41
 ----------------------------------------------------------------------------------------
   NUMBER   CELLID                    RATE       NAME                                    
 ----------------------------------------------------------------------------------------
     1      (1,1,169)             21.929568      SFTREACH1                               
     2      (1,1,170)             21.270432      SFTREACH2                               
     3      (1,1,171)             0.0000000      SFTREACH3                               
     4      (1,1,172)             0.0000000      SFTREACH4                               
     5      (1,1,173)             0.0000000      SFTREACH5                               
     6      (1,1,174)             0.0000000      SFTREACH6                               
     7      (1,1,175)             0.0000000      SFTREACH7                               
     8      (1,1,176)             0.0000000      SFTREACH8                               
     9      (1,1,177)             0.0000000      SFTREACH9                               
     10     (1,1,178)             0.0000000      SFTREACH10                              
     11     (1,1,179)             0.0000000      SFTREACH11                              
     12     (1,1,180)             0.0000000      SFTREACH12                              
     13     (1,1,181)             0.0000000      SFTREACH13                              
     14     (1,1,182)             0.0000000      SFTREACH14                              
     15     (1,1,183)             0.0000000      SFTREACH15                              
     16     (1,1,184)             0.0000000      SFTREACH16                              
     17     (1,1,185)             0.0000000      SFTREACH17                              
     18     (1,1,186)             0.0000000      SFTREACH18                              
     19     (1,1,187)             0.0000000      SFTREACH19                              
     20     (1,1,188)             0.0000000      SFTREACH20                              
     21     (1,1,189)             0.0000000      SFTREACH21                              
     22     (1,1,190)             0.0000000      SFTREACH22                              
     23     (1,1,191)             0.0000000      SFTREACH23                              
     24     (1,1,192)             0.0000000      SFTREACH24                              
 ----------------------------------------------------------------------------------------




 SFR-1 PACKAGE - SUMMARY OF FLOWS FOR EACH CONTROL VOLUME   PERIOD      1   STEP       41
 ----------------------------------------------------------------------------------------------------------------------------------------------------------------------
                                                                                                                                                             PERCENT   
   NUMBER      INFLOW      OUTFLOW        GWF        RAINFALL   EVAPORATION     RUNOFF     EXT INFLOW  EXT OUTFLOW    STORAGE      CONSTANT     IN - OUT    DIFFERENCE 
 ----------------------------------------------------------------------------------------------------------------------------------------------------------------------
     1       0.0000      -21.270      -21.930       0.0000       0.0000       0.0000       43.200       0.0000       0.0000       0.0000      -7.10543E-15 -1.64477E-14
     2       21.270       0.0000      -21.270       0.0000       0.0000       0.0000       0.0000       0.0000       0.0000       0.0000       3.55271E-15  1.67026E-14
     3       0.0000       0.0000       0.0000       0.0000       0.0000       0.0000       0.0000       0.0000       0.0000       0.0000       0.0000       0.0000     
     4       0.0000       0.0000       0.0000       0.0000       0.0000       0.0000       0.0000       0.0000       0.0000       0.0000       0.0000       0.0000     
     5       0.0000       0.0000       0.0000       0.0000       0.0000       0.0000       0.0000       0.0000       0.0000       0.0000       0.0000       0.0000     
     6       0.0000       0.0000       0.0000       0.0000       0.0000       0.0000       0.0000       0.0000       0.0000       0.0000       0.0000       0.0000     
     7       0.0000       0.0000       0.0000       0.0000       0.0000       0.0000       0.0000       0.0000       0.0000       0.0000       0.0000       0.0000     
     8       0.0000       0.0000       0.0000       0.0000       0.0000       0.0000       0.0000       0.0000       0.0000       0.0000       0.0000       0.0000     
     9       0.0000       0.0000       0.0000       0.0000       0.0000       0.0000       0.0000       0.0000       0.0000       0.0000       0.0000       0.0000     
     10      0.0000       0.0000       0.0000       0.0000       0.0000       0.0000       0.0000       0.0000       0.0000       0.0000       0.0000       0.0000     
     11      0.0000       0.0000       0.0000       0.0000       0.0000       0.0000       0.0000       0.0000       0.0000       0.0000       0.0000       0.0000     
     12      0.0000       0.0000       0.0000       0.0000       0.0000       0.0000       0.0000       0.0000       0.0000       0.0000       0.0000       0.0000     
     13      0.0000       0.0000       0.0000       0.0000       0.0000       0.0000       0.0000       0.0000       0.0000       0.0000       0.0000       0.0000     
     14      0.0000       0.0000       0.0000       0.0000       0.0000       0.0000       0.0000       0.0000       0.0000       0.0000       0.0000       0.0000     
     15      0.0000       0.0000       0.0000       0.0000       0.0000       0.0000       0.0000       0.0000       0.0000       0.0000       0.0000       0.0000     
     16      0.0000       0.0000       0.0000       0.0000       0.0000       0.0000       0.0000       0.0000       0.0000       0.0000       0.0000       0.0000     
     17      0.0000       0.0000       0.0000       0.0000       0.0000       0.0000       0.0000       0.0000       0.0000       0.0000       0.0000       0.0000     
     18      0.0000       0.0000       0.0000       0.0000       0.0000       0.0000       0.0000       0.0000       0.0000       0.0000       0.0000       0.0000     
     19      0.0000       0.0000       0.0000       0.0000       0.0000       0.0000       0.0000       0.0000       0.0000       0.0000       0.0000       0.0000     
     20      0.0000       0.0000       0.0000       0.0000       0.0000       0.0000       0.0000       0.0000       0.0000       0.0000       0.0000       0.0000     
     21      0.0000       0.0000       0.0000       0.0000       0.0000       0.0000       0.0000       0.0000       0.0000       0.0000       0.0000       0.0000     
     22      0.0000       0.0000       0.0000       0.0000       0.0000       0.0000       0.0000       0.0000       0.0000       0.0000       0.0000       0.0000     
     23      0.0000       0.0000       0.0000       0.0000       0.0000       0.0000       0.0000       0.0000       0.0000       0.0000       0.0000       0.0000     
     24      0.0000       0.0000       0.0000       0.0000       0.0000       0.0000       0.0000       0.0000       0.0000       0.0000       0.0000       0.0000     
 ----------------------------------------------------------------------------------------------------------------------------------------------------------------------




  SFR-1 BUDGET FOR ENTIRE MODEL AT END OF TIME STEP   41, STRESS PERIOD   1
  ------------------------------------------------------------------------------

     CUMULATIVE SFR-1      M       RATES FOR THIS TIME STEP      M/T
     ------------------                 ------------------------

           IN:                                      IN:
           ---                                      ---
                 GWF =           0.0000                   GWF =           0.0000
            RAINFALL =           0.0000              RAINFALL =           0.0000
         EVAPORATION =           0.0000           EVAPORATION =           0.0000
              RUNOFF =           0.0000                RUNOFF =           0.0000
          EXT-INFLOW =       17712.0000            EXT-INFLOW =          43.2000
         EXT-OUTFLOW =           0.0000           EXT-OUTFLOW =           0.0000
             STORAGE =           0.0000               STORAGE =           0.0000
            CONSTANT =           0.0000              CONSTANT =           0.0000

            TOTAL IN =       17712.0000              TOTAL IN =          43.2000

          OUT:                                     OUT:
          ----                                     ----
                 GWF =       17712.0000                   GWF =          43.2000
            RAINFALL =           0.0000              RAINFALL =           0.0000
         EVAPORATION =           0.0000           EVAPORATION =           0.0000
              RUNOFF =           0.0000                RUNOFF =           0.0000
          EXT-INFLOW =           0.0000            EXT-INFLOW =           0.0000
         EXT-OUTFLOW =           0.0000           EXT-OUTFLOW =           0.0000
             STORAGE =       2.7756E-16               STORAGE =           0.0000
            CONSTANT =           0.0000              CONSTANT =           0.0000

           TOTAL OUT =       17712.0000             TOTAL OUT =          43.2000

            IN - OUT =           0.0000              IN - OUT =           0.0000

 PERCENT DISCREPANCY =           0.00     PERCENT DISCREPANCY =           0.00



  MASS BUDGET FOR ENTIRE MODEL AT END OF TIME STEP   41, STRESS PERIOD   1
  ---------------------------------------------------------------------------------------------------

     CUMULATIVE MASS      M       RATES FOR THIS TIME STEP      M/T          PACKAGE NAME    
     ------------------                 ------------------------                     ----------------

           IN:                                      IN:
           ---                                      ---
     STORAGE-AQUEOUS =       1.2488E-13       STORAGE-AQUEOUS =       5.5582E-16     MST             
               RCH-1 =           0.0000                 RCH-1 =           0.0000     SSM             
               CHD-1 =           0.0000                 CHD-1 =           0.0000     SSM             
     FLOW-CORRECTION =       5.2629E-07       FLOW-CORRECTION =       2.8718E-09                     
                 SFT =       17712.0000                   SFT =          43.2000     SFR-1           

            TOTAL IN =       17712.0000              TOTAL IN =          43.2000

          OUT:                                     OUT:
          ----                                     ----
     STORAGE-AQUEOUS =       17711.9999       STORAGE-AQUEOUS =          43.2000     MST             
               RCH-1 =           0.0000                 RCH-1 =           0.0000     SSM             
               CHD-1 =       2.0685E-74                 CHD-1 =       1.6183E-75     SSM             
     FLOW-CORRECTION =       1.2063E-04       FLOW-CORRECTION =       5.6797E-07                     
                 SFT =           0.0000                   SFT =           0.0000     SFR-1           

           TOTAL OUT =       17712.0000             TOTAL OUT =          43.2000

            IN - OUT =       7.3667E-06              IN - OUT =       6.1022E-09

 PERCENT DISCREPANCY =           0.00     PERCENT DISCREPANCY =           0.00




         TIME SUMMARY AT END OF TIME STEP   41 IN STRESS PERIOD    1
                    SECONDS     MINUTES      HOURS       DAYS        YEARS
                    -----------------------------------------------------------
   TIME STEP LENGTH 8.64000E+05  14400.      240.00      10.000     2.73785E-02
 STRESS PERIOD TIME 3.54240E+07 5.90400E+05  9840.0      410.00      1.1225    
         TOTAL TIME 3.54240E+07 5.90400E+05  9840.0      410.00      1.1225    


end timestep


start timestep kper="1" kstp="42" mode="normal"


 FMI SETTING BUDGET TERMS FOR KSTP 42 AND KPER 1 TO BUDGET FILE TERMS FROM KSTP 1 AND KPER 1

 FMI SETTING HEAD FOR KSTP 42 AND KPER 1 TO BINARY FILE HEADS FROM KSTP 1 AND KPER 1

 SFR-1 SETTING BUDGET TERMS FOR KSTP 42 AND KPER 1 TO BUDGET FILE TERMS FROM KSTP 1 AND KPER 1

 SFT PACKAGE (SFR-1) FLOW RATES   PERIOD      1   STEP       42
 ----------------------------------------------------------------------------------------
   NUMBER   CELLID                    RATE       NAME                                    
 ----------------------------------------------------------------------------------------
     1      (1,1,169)             21.929568      SFTREACH1                               
     2      (1,1,170)             21.270432      SFTREACH2                               
     3      (1,1,171)             0.0000000      SFTREACH3                               
     4      (1,1,172)             0.0000000      SFTREACH4                               
     5      (1,1,173)             0.0000000      SFTREACH5                               
     6      (1,1,174)             0.0000000      SFTREACH6                               
     7      (1,1,175)             0.0000000      SFTREACH7                               
     8      (1,1,176)             0.0000000      SFTREACH8                               
     9      (1,1,177)             0.0000000      SFTREACH9                               
     10     (1,1,178)             0.0000000      SFTREACH10                              
     11     (1,1,179)             0.0000000      SFTREACH11                              
     12     (1,1,180)             0.0000000      SFTREACH12                              
     13     (1,1,181)             0.0000000      SFTREACH13                              
     14     (1,1,182)             0.0000000      SFTREACH14                              
     15     (1,1,183)             0.0000000      SFTREACH15                              
     16     (1,1,184)             0.0000000      SFTREACH16                              
     17     (1,1,185)             0.0000000      SFTREACH17                              
     18     (1,1,186)             0.0000000      SFTREACH18                              
     19     (1,1,187)             0.0000000      SFTREACH19                              
     20     (1,1,188)             0.0000000      SFTREACH20                              
     21     (1,1,189)             0.0000000      SFTREACH21                              
     22     (1,1,190)             0.0000000      SFTREACH22                              
     23     (1,1,191)             0.0000000      SFTREACH23                              
     24     (1,1,192)             0.0000000      SFTREACH24                              
 ----------------------------------------------------------------------------------------




 SFR-1 PACKAGE - SUMMARY OF FLOWS FOR EACH CONTROL VOLUME   PERIOD      1   STEP       42
 ----------------------------------------------------------------------------------------------------------------------------------------------------------------------
                                                                                                                                                             PERCENT   
   NUMBER      INFLOW      OUTFLOW        GWF        RAINFALL   EVAPORATION     RUNOFF     EXT INFLOW  EXT OUTFLOW    STORAGE      CONSTANT     IN - OUT    DIFFERENCE 
 ----------------------------------------------------------------------------------------------------------------------------------------------------------------------
     1       0.0000      -21.270      -21.930       0.0000       0.0000       0.0000       43.200       0.0000       0.0000       0.0000      -7.10543E-15 -1.64477E-14
     2       21.270       0.0000      -21.270       0.0000       0.0000       0.0000       0.0000       0.0000       0.0000       0.0000       3.55271E-15  1.67026E-14
     3       0.0000       0.0000       0.0000       0.0000       0.0000       0.0000       0.0000       0.0000       0.0000       0.0000       0.0000       0.0000     
     4       0.0000       0.0000       0.0000       0.0000       0.0000       0.0000       0.0000       0.0000       0.0000       0.0000       0.0000       0.0000     
     5       0.0000       0.0000       0.0000       0.0000       0.0000       0.0000       0.0000       0.0000       0.0000       0.0000       0.0000       0.0000     
     6       0.0000       0.0000       0.0000       0.0000       0.0000       0.0000       0.0000       0.0000       0.0000       0.0000       0.0000       0.0000     
     7       0.0000       0.0000       0.0000       0.0000       0.0000       0.0000       0.0000       0.0000       0.0000       0.0000       0.0000       0.0000     
     8       0.0000       0.0000       0.0000       0.0000       0.0000       0.0000       0.0000       0.0000       0.0000       0.0000       0.0000       0.0000     
     9       0.0000       0.0000       0.0000       0.0000       0.0000       0.0000       0.0000       0.0000       0.0000       0.0000       0.0000       0.0000     
     10      0.0000       0.0000       0.0000       0.0000       0.0000       0.0000       0.0000       0.0000       0.0000       0.0000       0.0000       0.0000     
     11      0.0000       0.0000       0.0000       0.0000       0.0000       0.0000       0.0000       0.0000       0.0000       0.0000       0.0000       0.0000     
     12      0.0000       0.0000       0.0000       0.0000       0.0000       0.0000       0.0000       0.0000       0.0000       0.0000       0.0000       0.0000     
     13      0.0000       0.0000       0.0000       0.0000       0.0000       0.0000       0.0000       0.0000       0.0000       0.0000       0.0000       0.0000     
     14      0.0000       0.0000       0.0000       0.0000       0.0000       0.0000       0.0000       0.0000       0.0000       0.0000       0.0000       0.0000     
     15      0.0000       0.0000       0.0000       0.0000       0.0000       0.0000       0.0000       0.0000       0.0000       0.0000       0.0000       0.0000     
     16      0.0000       0.0000       0.0000       0.0000       0.0000       0.0000       0.0000       0.0000       0.0000       0.0000       0.0000       0.0000     
     17      0.0000       0.0000       0.0000       0.0000       0.0000       0.0000       0.0000       0.0000       0.0000       0.0000       0.0000       0.0000     
     18      0.0000       0.0000       0.0000       0.0000       0.0000       0.0000       0.0000       0.0000       0.0000       0.0000       0.0000       0.0000     
     19      0.0000       0.0000       0.0000       0.0000       0.0000       0.0000       0.0000       0.0000       0.0000       0.0000       0.0000       0.0000     
     20      0.0000       0.0000       0.0000       0.0000       0.0000       0.0000       0.0000       0.0000       0.0000       0.0000       0.0000       0.0000     
     21      0.0000       0.0000       0.0000       0.0000       0.0000       0.0000       0.0000       0.0000       0.0000       0.0000       0.0000       0.0000     
     22      0.0000       0.0000       0.0000       0.0000       0.0000       0.0000       0.0000       0.0000       0.0000       0.0000       0.0000       0.0000     
     23      0.0000       0.0000       0.0000       0.0000       0.0000       0.0000       0.0000       0.0000       0.0000       0.0000       0.0000       0.0000     
     24      0.0000       0.0000       0.0000       0.0000       0.0000       0.0000       0.0000       0.0000       0.0000       0.0000       0.0000       0.0000     
 ----------------------------------------------------------------------------------------------------------------------------------------------------------------------




  SFR-1 BUDGET FOR ENTIRE MODEL AT END OF TIME STEP   42, STRESS PERIOD   1
  ------------------------------------------------------------------------------

     CUMULATIVE SFR-1      M       RATES FOR THIS TIME STEP      M/T
     ------------------                 ------------------------

           IN:                                      IN:
           ---                                      ---
                 GWF =           0.0000                   GWF =           0.0000
            RAINFALL =           0.0000              RAINFALL =           0.0000
         EVAPORATION =           0.0000           EVAPORATION =           0.0000
              RUNOFF =           0.0000                RUNOFF =           0.0000
          EXT-INFLOW =       18144.0000            EXT-INFLOW =          43.2000
         EXT-OUTFLOW =           0.0000           EXT-OUTFLOW =           0.0000
             STORAGE =           0.0000               STORAGE =           0.0000
            CONSTANT =           0.0000              CONSTANT =           0.0000

            TOTAL IN =       18144.0000              TOTAL IN =          43.2000

          OUT:                                     OUT:
          ----                                     ----
                 GWF =       18144.0000                   GWF =          43.2000
            RAINFALL =           0.0000              RAINFALL =           0.0000
         EVAPORATION =           0.0000           EVAPORATION =           0.0000
              RUNOFF =           0.0000                RUNOFF =           0.0000
          EXT-INFLOW =           0.0000            EXT-INFLOW =           0.0000
         EXT-OUTFLOW =           0.0000           EXT-OUTFLOW =           0.0000
             STORAGE =       2.7756E-16               STORAGE =           0.0000
            CONSTANT =           0.0000              CONSTANT =           0.0000

           TOTAL OUT =       18144.0000             TOTAL OUT =          43.2000

            IN - OUT =           0.0000              IN - OUT =           0.0000

 PERCENT DISCREPANCY =           0.00     PERCENT DISCREPANCY =           0.00



  MASS BUDGET FOR ENTIRE MODEL AT END OF TIME STEP   42, STRESS PERIOD   1
  ---------------------------------------------------------------------------------------------------

     CUMULATIVE MASS      M       RATES FOR THIS TIME STEP      M/T          PACKAGE NAME    
     ------------------                 ------------------------                     ----------------

           IN:                                      IN:
           ---                                      ---
     STORAGE-AQUEOUS =       1.3044E-13       STORAGE-AQUEOUS =       5.5582E-16     MST             
               RCH-1 =           0.0000                 RCH-1 =           0.0000     SSM             
               CHD-1 =           0.0000                 CHD-1 =           0.0000     SSM             
     FLOW-CORRECTION =       5.5802E-07       FLOW-CORRECTION =       3.1733E-09                     
                 SFT =       18144.0000                   SFT =          43.2000     SFR-1           

            TOTAL IN =       18144.0000              TOTAL IN =          43.2000

          OUT:                                     OUT:
          ----                                     ----
     STORAGE-AQUEOUS =       18143.9999       STORAGE-AQUEOUS =          43.2000     MST             
               RCH-1 =           0.0000                 RCH-1 =           0.0000     SSM             
               CHD-1 =       9.3077E-74                 CHD-1 =       7.2392E-75     SSM             
     FLOW-CORRECTION =       1.2642E-04       FLOW-CORRECTION =       5.7926E-07                     
                 SFT =           0.0000                   SFT =           0.0000     SFR-1           

           TOTAL OUT =       18144.0000             TOTAL OUT =          43.2000

            IN - OUT =       7.4566E-06              IN - OUT =       8.9935E-09

 PERCENT DISCREPANCY =           0.00     PERCENT DISCREPANCY =           0.00




         TIME SUMMARY AT END OF TIME STEP   42 IN STRESS PERIOD    1
                    SECONDS     MINUTES      HOURS       DAYS        YEARS
                    -----------------------------------------------------------
   TIME STEP LENGTH 8.64000E+05  14400.      240.00      10.000     2.73785E-02
 STRESS PERIOD TIME 3.62880E+07 6.04800E+05  10080.      420.00      1.1499    
         TOTAL TIME 3.62880E+07 6.04800E+05  10080.      420.00      1.1499    


end timestep


start timestep kper="1" kstp="43" mode="normal"


 FMI SETTING BUDGET TERMS FOR KSTP 43 AND KPER 1 TO BUDGET FILE TERMS FROM KSTP 1 AND KPER 1

 FMI SETTING HEAD FOR KSTP 43 AND KPER 1 TO BINARY FILE HEADS FROM KSTP 1 AND KPER 1

 SFR-1 SETTING BUDGET TERMS FOR KSTP 43 AND KPER 1 TO BUDGET FILE TERMS FROM KSTP 1 AND KPER 1

 SFT PACKAGE (SFR-1) FLOW RATES   PERIOD      1   STEP       43
 ----------------------------------------------------------------------------------------
   NUMBER   CELLID                    RATE       NAME                                    
 ----------------------------------------------------------------------------------------
     1      (1,1,169)             21.929568      SFTREACH1                               
     2      (1,1,170)             21.270432      SFTREACH2                               
     3      (1,1,171)             0.0000000      SFTREACH3                               
     4      (1,1,172)             0.0000000      SFTREACH4                               
     5      (1,1,173)             0.0000000      SFTREACH5                               
     6      (1,1,174)             0.0000000      SFTREACH6                               
     7      (1,1,175)             0.0000000      SFTREACH7                               
     8      (1,1,176)             0.0000000      SFTREACH8                               
     9      (1,1,177)             0.0000000      SFTREACH9                               
     10     (1,1,178)             0.0000000      SFTREACH10                              
     11     (1,1,179)             0.0000000      SFTREACH11                              
     12     (1,1,180)             0.0000000      SFTREACH12                              
     13     (1,1,181)             0.0000000      SFTREACH13                              
     14     (1,1,182)             0.0000000      SFTREACH14                              
     15     (1,1,183)             0.0000000      SFTREACH15                              
     16     (1,1,184)             0.0000000      SFTREACH16                              
     17     (1,1,185)             0.0000000      SFTREACH17                              
     18     (1,1,186)             0.0000000      SFTREACH18                              
     19     (1,1,187)             0.0000000      SFTREACH19                              
     20     (1,1,188)             0.0000000      SFTREACH20                              
     21     (1,1,189)             0.0000000      SFTREACH21                              
     22     (1,1,190)             0.0000000      SFTREACH22                              
     23     (1,1,191)             0.0000000      SFTREACH23                              
     24     (1,1,192)             0.0000000      SFTREACH24                              
 ----------------------------------------------------------------------------------------




 SFR-1 PACKAGE - SUMMARY OF FLOWS FOR EACH CONTROL VOLUME   PERIOD      1   STEP       43
 ----------------------------------------------------------------------------------------------------------------------------------------------------------------------
                                                                                                                                                             PERCENT   
   NUMBER      INFLOW      OUTFLOW        GWF        RAINFALL   EVAPORATION     RUNOFF     EXT INFLOW  EXT OUTFLOW    STORAGE      CONSTANT     IN - OUT    DIFFERENCE 
 ----------------------------------------------------------------------------------------------------------------------------------------------------------------------
     1       0.0000      -21.270      -21.930       0.0000       0.0000       0.0000       43.200       0.0000       0.0000       0.0000      -7.10543E-15 -1.64477E-14
     2       21.270       0.0000      -21.270       0.0000       0.0000       0.0000       0.0000       0.0000       0.0000       0.0000       3.55271E-15  1.67026E-14
     3       0.0000       0.0000       0.0000       0.0000       0.0000       0.0000       0.0000       0.0000       0.0000       0.0000       0.0000       0.0000     
     4       0.0000       0.0000       0.0000       0.0000       0.0000       0.0000       0.0000       0.0000       0.0000       0.0000       0.0000       0.0000     
     5       0.0000       0.0000       0.0000       0.0000       0.0000       0.0000       0.0000       0.0000       0.0000       0.0000       0.0000       0.0000     
     6       0.0000       0.0000       0.0000       0.0000       0.0000       0.0000       0.0000       0.0000       0.0000       0.0000       0.0000       0.0000     
     7       0.0000       0.0000       0.0000       0.0000       0.0000       0.0000       0.0000       0.0000       0.0000       0.0000       0.0000       0.0000     
     8       0.0000       0.0000       0.0000       0.0000       0.0000       0.0000       0.0000       0.0000       0.0000       0.0000       0.0000       0.0000     
     9       0.0000       0.0000       0.0000       0.0000       0.0000       0.0000       0.0000       0.0000       0.0000       0.0000       0.0000       0.0000     
     10      0.0000       0.0000       0.0000       0.0000       0.0000       0.0000       0.0000       0.0000       0.0000       0.0000       0.0000       0.0000     
     11      0.0000       0.0000       0.0000       0.0000       0.0000       0.0000       0.0000       0.0000       0.0000       0.0000       0.0000       0.0000     
     12      0.0000       0.0000       0.0000       0.0000       0.0000       0.0000       0.0000       0.0000       0.0000       0.0000       0.0000       0.0000     
     13      0.0000       0.0000       0.0000       0.0000       0.0000       0.0000       0.0000       0.0000       0.0000       0.0000       0.0000       0.0000     
     14      0.0000       0.0000       0.0000       0.0000       0.0000       0.0000       0.0000       0.0000       0.0000       0.0000       0.0000       0.0000     
     15      0.0000       0.0000       0.0000       0.0000       0.0000       0.0000       0.0000       0.0000       0.0000       0.0000       0.0000       0.0000     
     16      0.0000       0.0000       0.0000       0.0000       0.0000       0.0000       0.0000       0.0000       0.0000       0.0000       0.0000       0.0000     
     17      0.0000       0.0000       0.0000       0.0000       0.0000       0.0000       0.0000       0.0000       0.0000       0.0000       0.0000       0.0000     
     18      0.0000       0.0000       0.0000       0.0000       0.0000       0.0000       0.0000       0.0000       0.0000       0.0000       0.0000       0.0000     
     19      0.0000       0.0000       0.0000       0.0000       0.0000       0.0000       0.0000       0.0000       0.0000       0.0000       0.0000       0.0000     
     20      0.0000       0.0000       0.0000       0.0000       0.0000       0.0000       0.0000       0.0000       0.0000       0.0000       0.0000       0.0000     
     21      0.0000       0.0000       0.0000       0.0000       0.0000       0.0000       0.0000       0.0000       0.0000       0.0000       0.0000       0.0000     
     22      0.0000       0.0000       0.0000       0.0000       0.0000       0.0000       0.0000       0.0000       0.0000       0.0000       0.0000       0.0000     
     23      0.0000       0.0000       0.0000       0.0000       0.0000       0.0000       0.0000       0.0000       0.0000       0.0000       0.0000       0.0000     
     24      0.0000       0.0000       0.0000       0.0000       0.0000       0.0000       0.0000       0.0000       0.0000       0.0000       0.0000       0.0000     
 ----------------------------------------------------------------------------------------------------------------------------------------------------------------------




  SFR-1 BUDGET FOR ENTIRE MODEL AT END OF TIME STEP   43, STRESS PERIOD   1
  ------------------------------------------------------------------------------

     CUMULATIVE SFR-1      M       RATES FOR THIS TIME STEP      M/T
     ------------------                 ------------------------

           IN:                                      IN:
           ---                                      ---
                 GWF =           0.0000                   GWF =           0.0000
            RAINFALL =           0.0000              RAINFALL =           0.0000
         EVAPORATION =           0.0000           EVAPORATION =           0.0000
              RUNOFF =           0.0000                RUNOFF =           0.0000
          EXT-INFLOW =       18576.0000            EXT-INFLOW =          43.2000
         EXT-OUTFLOW =           0.0000           EXT-OUTFLOW =           0.0000
             STORAGE =           0.0000               STORAGE =           0.0000
            CONSTANT =           0.0000              CONSTANT =           0.0000

            TOTAL IN =       18576.0000              TOTAL IN =          43.2000

          OUT:                                     OUT:
          ----                                     ----
                 GWF =       18576.0000                   GWF =          43.2000
            RAINFALL =           0.0000              RAINFALL =           0.0000
         EVAPORATION =           0.0000           EVAPORATION =           0.0000
              RUNOFF =           0.0000                RUNOFF =           0.0000
          EXT-INFLOW =           0.0000            EXT-INFLOW =           0.0000
         EXT-OUTFLOW =           0.0000           EXT-OUTFLOW =           0.0000
             STORAGE =       2.7756E-16               STORAGE =           0.0000
            CONSTANT =           0.0000              CONSTANT =           0.0000

           TOTAL OUT =       18576.0000             TOTAL OUT =          43.2000

            IN - OUT =           0.0000              IN - OUT =           0.0000

 PERCENT DISCREPANCY =           0.00     PERCENT DISCREPANCY =           0.00



  MASS BUDGET FOR ENTIRE MODEL AT END OF TIME STEP   43, STRESS PERIOD   1
  ---------------------------------------------------------------------------------------------------

     CUMULATIVE MASS      M       RATES FOR THIS TIME STEP      M/T          PACKAGE NAME    
     ------------------                 ------------------------                     ----------------

           IN:                                      IN:
           ---                                      ---
     STORAGE-AQUEOUS =       1.3600E-13       STORAGE-AQUEOUS =       5.5582E-16     MST             
               RCH-1 =           0.0000                 RCH-1 =           0.0000     SSM             
               CHD-1 =           0.0000                 CHD-1 =           0.0000     SSM             
     FLOW-CORRECTION =       5.9317E-07       FLOW-CORRECTION =       3.5150E-09                     
                 SFT =       18576.0000                   SFT =          43.2000     SFR-1           

            TOTAL IN =       18576.0000              TOTAL IN =          43.2000

          OUT:                                     OUT:
          ----                                     ----
     STORAGE-AQUEOUS =       18575.9999       STORAGE-AQUEOUS =          43.2000     MST             
               RCH-1 =           0.0000                 RCH-1 =           0.0000     SSM             
               CHD-1 =       4.1040E-73                 CHD-1 =       3.1733E-74     SSM             
     FLOW-CORRECTION =       1.3232E-04       FLOW-CORRECTION =       5.9039E-07                     
                 SFT =           0.0000                   SFT =           0.0000     SFR-1           

           TOTAL OUT =       18576.0000             TOTAL OUT =          43.2000

            IN - OUT =       7.5603E-06              IN - OUT =       1.0362E-08

 PERCENT DISCREPANCY =           0.00     PERCENT DISCREPANCY =           0.00




         TIME SUMMARY AT END OF TIME STEP   43 IN STRESS PERIOD    1
                    SECONDS     MINUTES      HOURS       DAYS        YEARS
                    -----------------------------------------------------------
   TIME STEP LENGTH 8.64000E+05  14400.      240.00      10.000     2.73785E-02
 STRESS PERIOD TIME 3.71520E+07 6.19200E+05  10320.      430.00      1.1773    
         TOTAL TIME 3.71520E+07 6.19200E+05  10320.      430.00      1.1773    


end timestep


start timestep kper="1" kstp="44" mode="normal"


 FMI SETTING BUDGET TERMS FOR KSTP 44 AND KPER 1 TO BUDGET FILE TERMS FROM KSTP 1 AND KPER 1

 FMI SETTING HEAD FOR KSTP 44 AND KPER 1 TO BINARY FILE HEADS FROM KSTP 1 AND KPER 1

 SFR-1 SETTING BUDGET TERMS FOR KSTP 44 AND KPER 1 TO BUDGET FILE TERMS FROM KSTP 1 AND KPER 1

 SFT PACKAGE (SFR-1) FLOW RATES   PERIOD      1   STEP       44
 ----------------------------------------------------------------------------------------
   NUMBER   CELLID                    RATE       NAME                                    
 ----------------------------------------------------------------------------------------
     1      (1,1,169)             21.929568      SFTREACH1                               
     2      (1,1,170)             21.270432      SFTREACH2                               
     3      (1,1,171)             0.0000000      SFTREACH3                               
     4      (1,1,172)             0.0000000      SFTREACH4                               
     5      (1,1,173)             0.0000000      SFTREACH5                               
     6      (1,1,174)             0.0000000      SFTREACH6                               
     7      (1,1,175)             0.0000000      SFTREACH7                               
     8      (1,1,176)             0.0000000      SFTREACH8                               
     9      (1,1,177)             0.0000000      SFTREACH9                               
     10     (1,1,178)             0.0000000      SFTREACH10                              
     11     (1,1,179)             0.0000000      SFTREACH11                              
     12     (1,1,180)             0.0000000      SFTREACH12                              
     13     (1,1,181)             0.0000000      SFTREACH13                              
     14     (1,1,182)             0.0000000      SFTREACH14                              
     15     (1,1,183)             0.0000000      SFTREACH15                              
     16     (1,1,184)             0.0000000      SFTREACH16                              
     17     (1,1,185)             0.0000000      SFTREACH17                              
     18     (1,1,186)             0.0000000      SFTREACH18                              
     19     (1,1,187)             0.0000000      SFTREACH19                              
     20     (1,1,188)             0.0000000      SFTREACH20                              
     21     (1,1,189)             0.0000000      SFTREACH21                              
     22     (1,1,190)             0.0000000      SFTREACH22                              
     23     (1,1,191)             0.0000000      SFTREACH23                              
     24     (1,1,192)             0.0000000      SFTREACH24                              
 ----------------------------------------------------------------------------------------




 SFR-1 PACKAGE - SUMMARY OF FLOWS FOR EACH CONTROL VOLUME   PERIOD      1   STEP       44
 ----------------------------------------------------------------------------------------------------------------------------------------------------------------------
                                                                                                                                                             PERCENT   
   NUMBER      INFLOW      OUTFLOW        GWF        RAINFALL   EVAPORATION     RUNOFF     EXT INFLOW  EXT OUTFLOW    STORAGE      CONSTANT     IN - OUT    DIFFERENCE 
 ----------------------------------------------------------------------------------------------------------------------------------------------------------------------
     1       0.0000      -21.270      -21.930       0.0000       0.0000       0.0000       43.200       0.0000       0.0000       0.0000      -7.10543E-15 -1.64477E-14
     2       21.270       0.0000      -21.270       0.0000       0.0000       0.0000       0.0000       0.0000       0.0000       0.0000       3.55271E-15  1.67026E-14
     3       0.0000       0.0000       0.0000       0.0000       0.0000       0.0000       0.0000       0.0000       0.0000       0.0000       0.0000       0.0000     
     4       0.0000       0.0000       0.0000       0.0000       0.0000       0.0000       0.0000       0.0000       0.0000       0.0000       0.0000       0.0000     
     5       0.0000       0.0000       0.0000       0.0000       0.0000       0.0000       0.0000       0.0000       0.0000       0.0000       0.0000       0.0000     
     6       0.0000       0.0000       0.0000       0.0000       0.0000       0.0000       0.0000       0.0000       0.0000       0.0000       0.0000       0.0000     
     7       0.0000       0.0000       0.0000       0.0000       0.0000       0.0000       0.0000       0.0000       0.0000       0.0000       0.0000       0.0000     
     8       0.0000       0.0000       0.0000       0.0000       0.0000       0.0000       0.0000       0.0000       0.0000       0.0000       0.0000       0.0000     
     9       0.0000       0.0000       0.0000       0.0000       0.0000       0.0000       0.0000       0.0000       0.0000       0.0000       0.0000       0.0000     
     10      0.0000       0.0000       0.0000       0.0000       0.0000       0.0000       0.0000       0.0000       0.0000       0.0000       0.0000       0.0000     
     11      0.0000       0.0000       0.0000       0.0000       0.0000       0.0000       0.0000       0.0000       0.0000       0.0000       0.0000       0.0000     
     12      0.0000       0.0000       0.0000       0.0000       0.0000       0.0000       0.0000       0.0000       0.0000       0.0000       0.0000       0.0000     
     13      0.0000       0.0000       0.0000       0.0000       0.0000       0.0000       0.0000       0.0000       0.0000       0.0000       0.0000       0.0000     
     14      0.0000       0.0000       0.0000       0.0000       0.0000       0.0000       0.0000       0.0000       0.0000       0.0000       0.0000       0.0000     
     15      0.0000       0.0000       0.0000       0.0000       0.0000       0.0000       0.0000       0.0000       0.0000       0.0000       0.0000       0.0000     
     16      0.0000       0.0000       0.0000       0.0000       0.0000       0.0000       0.0000       0.0000       0.0000       0.0000       0.0000       0.0000     
     17      0.0000       0.0000       0.0000       0.0000       0.0000       0.0000       0.0000       0.0000       0.0000       0.0000       0.0000       0.0000     
     18      0.0000       0.0000       0.0000       0.0000       0.0000       0.0000       0.0000       0.0000       0.0000       0.0000       0.0000       0.0000     
     19      0.0000       0.0000       0.0000       0.0000       0.0000       0.0000       0.0000       0.0000       0.0000       0.0000       0.0000       0.0000     
     20      0.0000       0.0000       0.0000       0.0000       0.0000       0.0000       0.0000       0.0000       0.0000       0.0000       0.0000       0.0000     
     21      0.0000       0.0000       0.0000       0.0000       0.0000       0.0000       0.0000       0.0000       0.0000       0.0000       0.0000       0.0000     
     22      0.0000       0.0000       0.0000       0.0000       0.0000       0.0000       0.0000       0.0000       0.0000       0.0000       0.0000       0.0000     
     23      0.0000       0.0000       0.0000       0.0000       0.0000       0.0000       0.0000       0.0000       0.0000       0.0000       0.0000       0.0000     
     24      0.0000       0.0000       0.0000       0.0000       0.0000       0.0000       0.0000       0.0000       0.0000       0.0000       0.0000       0.0000     
 ----------------------------------------------------------------------------------------------------------------------------------------------------------------------




  SFR-1 BUDGET FOR ENTIRE MODEL AT END OF TIME STEP   44, STRESS PERIOD   1
  ------------------------------------------------------------------------------

     CUMULATIVE SFR-1      M       RATES FOR THIS TIME STEP      M/T
     ------------------                 ------------------------

           IN:                                      IN:
           ---                                      ---
                 GWF =           0.0000                   GWF =           0.0000
            RAINFALL =           0.0000              RAINFALL =           0.0000
         EVAPORATION =           0.0000           EVAPORATION =           0.0000
              RUNOFF =           0.0000                RUNOFF =           0.0000
          EXT-INFLOW =       19008.0000            EXT-INFLOW =          43.2000
         EXT-OUTFLOW =           0.0000           EXT-OUTFLOW =           0.0000
             STORAGE =           0.0000               STORAGE =           0.0000
            CONSTANT =           0.0000              CONSTANT =           0.0000

            TOTAL IN =       19008.0000              TOTAL IN =          43.2000

          OUT:                                     OUT:
          ----                                     ----
                 GWF =       19008.0000                   GWF =          43.2000
            RAINFALL =           0.0000              RAINFALL =           0.0000
         EVAPORATION =           0.0000           EVAPORATION =           0.0000
              RUNOFF =           0.0000                RUNOFF =           0.0000
          EXT-INFLOW =           0.0000            EXT-INFLOW =           0.0000
         EXT-OUTFLOW =           0.0000           EXT-OUTFLOW =           0.0000
             STORAGE =       2.7756E-16               STORAGE =           0.0000
            CONSTANT =           0.0000              CONSTANT =           0.0000

           TOTAL OUT =       19008.0000             TOTAL OUT =          43.2000

            IN - OUT =           0.0000              IN - OUT =           0.0000

 PERCENT DISCREPANCY =           0.00     PERCENT DISCREPANCY =           0.00



  MASS BUDGET FOR ENTIRE MODEL AT END OF TIME STEP   44, STRESS PERIOD   1
  ---------------------------------------------------------------------------------------------------

     CUMULATIVE MASS      M       RATES FOR THIS TIME STEP      M/T          PACKAGE NAME    
     ------------------                 ------------------------                     ----------------

           IN:                                      IN:
           ---                                      ---
     STORAGE-AQUEOUS =       1.4156E-13       STORAGE-AQUEOUS =       5.5582E-16     MST             
               RCH-1 =           0.0000                 RCH-1 =           0.0000     SSM             
               CHD-1 =           0.0000                 CHD-1 =           0.0000     SSM             
     FLOW-CORRECTION =       6.3219E-07       FLOW-CORRECTION =       3.9015E-09                     
                 SFT =       19008.0000                   SFT =          43.2000     SFR-1           

            TOTAL IN =       19008.0000              TOTAL IN =          43.2000

          OUT:                                     OUT:
          ----                                     ----
     STORAGE-AQUEOUS =       19007.9999       STORAGE-AQUEOUS =          43.2000     MST             
               RCH-1 =           0.0000                 RCH-1 =           0.0000     SSM             
               CHD-1 =       1.7742E-72                 CHD-1 =       1.3638E-73     SSM             
     FLOW-CORRECTION =       1.3834E-04       FLOW-CORRECTION =       6.0137E-07                     
                 SFT =           0.0000                   SFT =           0.0000     SFR-1           

           TOTAL OUT =       19008.0000             TOTAL OUT =          43.2000

            IN - OUT =       7.6716E-06              IN - OUT =       1.1138E-08

 PERCENT DISCREPANCY =           0.00     PERCENT DISCREPANCY =           0.00




         TIME SUMMARY AT END OF TIME STEP   44 IN STRESS PERIOD    1
                    SECONDS     MINUTES      HOURS       DAYS        YEARS
                    -----------------------------------------------------------
   TIME STEP LENGTH 8.64000E+05  14400.      240.00      10.000     2.73785E-02
 STRESS PERIOD TIME 3.80160E+07 6.33600E+05  10560.      440.00      1.2047    
         TOTAL TIME 3.80160E+07 6.33600E+05  10560.      440.00      1.2047    


end timestep


start timestep kper="1" kstp="45" mode="normal"


 FMI SETTING BUDGET TERMS FOR KSTP 45 AND KPER 1 TO BUDGET FILE TERMS FROM KSTP 1 AND KPER 1

 FMI SETTING HEAD FOR KSTP 45 AND KPER 1 TO BINARY FILE HEADS FROM KSTP 1 AND KPER 1

 SFR-1 SETTING BUDGET TERMS FOR KSTP 45 AND KPER 1 TO BUDGET FILE TERMS FROM KSTP 1 AND KPER 1

 SFT PACKAGE (SFR-1) FLOW RATES   PERIOD      1   STEP       45
 ----------------------------------------------------------------------------------------
   NUMBER   CELLID                    RATE       NAME                                    
 ----------------------------------------------------------------------------------------
     1      (1,1,169)             21.929568      SFTREACH1                               
     2      (1,1,170)             21.270432      SFTREACH2                               
     3      (1,1,171)             0.0000000      SFTREACH3                               
     4      (1,1,172)             0.0000000      SFTREACH4                               
     5      (1,1,173)             0.0000000      SFTREACH5                               
     6      (1,1,174)             0.0000000      SFTREACH6                               
     7      (1,1,175)             0.0000000      SFTREACH7                               
     8      (1,1,176)             0.0000000      SFTREACH8                               
     9      (1,1,177)             0.0000000      SFTREACH9                               
     10     (1,1,178)             0.0000000      SFTREACH10                              
     11     (1,1,179)             0.0000000      SFTREACH11                              
     12     (1,1,180)             0.0000000      SFTREACH12                              
     13     (1,1,181)             0.0000000      SFTREACH13                              
     14     (1,1,182)             0.0000000      SFTREACH14                              
     15     (1,1,183)             0.0000000      SFTREACH15                              
     16     (1,1,184)             0.0000000      SFTREACH16                              
     17     (1,1,185)             0.0000000      SFTREACH17                              
     18     (1,1,186)             0.0000000      SFTREACH18                              
     19     (1,1,187)             0.0000000      SFTREACH19                              
     20     (1,1,188)             0.0000000      SFTREACH20                              
     21     (1,1,189)             0.0000000      SFTREACH21                              
     22     (1,1,190)             0.0000000      SFTREACH22                              
     23     (1,1,191)             0.0000000      SFTREACH23                              
     24     (1,1,192)             0.0000000      SFTREACH24                              
 ----------------------------------------------------------------------------------------




 SFR-1 PACKAGE - SUMMARY OF FLOWS FOR EACH CONTROL VOLUME   PERIOD      1   STEP       45
 ----------------------------------------------------------------------------------------------------------------------------------------------------------------------
                                                                                                                                                             PERCENT   
   NUMBER      INFLOW      OUTFLOW        GWF        RAINFALL   EVAPORATION     RUNOFF     EXT INFLOW  EXT OUTFLOW    STORAGE      CONSTANT     IN - OUT    DIFFERENCE 
 ----------------------------------------------------------------------------------------------------------------------------------------------------------------------
     1       0.0000      -21.270      -21.930       0.0000       0.0000       0.0000       43.200       0.0000       0.0000       0.0000      -7.10543E-15 -1.64477E-14
     2       21.270       0.0000      -21.270       0.0000       0.0000       0.0000       0.0000       0.0000       0.0000       0.0000       3.55271E-15  1.67026E-14
     3       0.0000       0.0000       0.0000       0.0000       0.0000       0.0000       0.0000       0.0000       0.0000       0.0000       0.0000       0.0000     
     4       0.0000       0.0000       0.0000       0.0000       0.0000       0.0000       0.0000       0.0000       0.0000       0.0000       0.0000       0.0000     
     5       0.0000       0.0000       0.0000       0.0000       0.0000       0.0000       0.0000       0.0000       0.0000       0.0000       0.0000       0.0000     
     6       0.0000       0.0000       0.0000       0.0000       0.0000       0.0000       0.0000       0.0000       0.0000       0.0000       0.0000       0.0000     
     7       0.0000       0.0000       0.0000       0.0000       0.0000       0.0000       0.0000       0.0000       0.0000       0.0000       0.0000       0.0000     
     8       0.0000       0.0000       0.0000       0.0000       0.0000       0.0000       0.0000       0.0000       0.0000       0.0000       0.0000       0.0000     
     9       0.0000       0.0000       0.0000       0.0000       0.0000       0.0000       0.0000       0.0000       0.0000       0.0000       0.0000       0.0000     
     10      0.0000       0.0000       0.0000       0.0000       0.0000       0.0000       0.0000       0.0000       0.0000       0.0000       0.0000       0.0000     
     11      0.0000       0.0000       0.0000       0.0000       0.0000       0.0000       0.0000       0.0000       0.0000       0.0000       0.0000       0.0000     
     12      0.0000       0.0000       0.0000       0.0000       0.0000       0.0000       0.0000       0.0000       0.0000       0.0000       0.0000       0.0000     
     13      0.0000       0.0000       0.0000       0.0000       0.0000       0.0000       0.0000       0.0000       0.0000       0.0000       0.0000       0.0000     
     14      0.0000       0.0000       0.0000       0.0000       0.0000       0.0000       0.0000       0.0000       0.0000       0.0000       0.0000       0.0000     
     15      0.0000       0.0000       0.0000       0.0000       0.0000       0.0000       0.0000       0.0000       0.0000       0.0000       0.0000       0.0000     
     16      0.0000       0.0000       0.0000       0.0000       0.0000       0.0000       0.0000       0.0000       0.0000       0.0000       0.0000       0.0000     
     17      0.0000       0.0000       0.0000       0.0000       0.0000       0.0000       0.0000       0.0000       0.0000       0.0000       0.0000       0.0000     
     18      0.0000       0.0000       0.0000       0.0000       0.0000       0.0000       0.0000       0.0000       0.0000       0.0000       0.0000       0.0000     
     19      0.0000       0.0000       0.0000       0.0000       0.0000       0.0000       0.0000       0.0000       0.0000       0.0000       0.0000       0.0000     
     20      0.0000       0.0000       0.0000       0.0000       0.0000       0.0000       0.0000       0.0000       0.0000       0.0000       0.0000       0.0000     
     21      0.0000       0.0000       0.0000       0.0000       0.0000       0.0000       0.0000       0.0000       0.0000       0.0000       0.0000       0.0000     
     22      0.0000       0.0000       0.0000       0.0000       0.0000       0.0000       0.0000       0.0000       0.0000       0.0000       0.0000       0.0000     
     23      0.0000       0.0000       0.0000       0.0000       0.0000       0.0000       0.0000       0.0000       0.0000       0.0000       0.0000       0.0000     
     24      0.0000       0.0000       0.0000       0.0000       0.0000       0.0000       0.0000       0.0000       0.0000       0.0000       0.0000       0.0000     
 ----------------------------------------------------------------------------------------------------------------------------------------------------------------------




  SFR-1 BUDGET FOR ENTIRE MODEL AT END OF TIME STEP   45, STRESS PERIOD   1
  ------------------------------------------------------------------------------

     CUMULATIVE SFR-1      M       RATES FOR THIS TIME STEP      M/T
     ------------------                 ------------------------

           IN:                                      IN:
           ---                                      ---
                 GWF =           0.0000                   GWF =           0.0000
            RAINFALL =           0.0000              RAINFALL =           0.0000
         EVAPORATION =           0.0000           EVAPORATION =           0.0000
              RUNOFF =           0.0000                RUNOFF =           0.0000
          EXT-INFLOW =       19440.0000            EXT-INFLOW =          43.2000
         EXT-OUTFLOW =           0.0000           EXT-OUTFLOW =           0.0000
             STORAGE =           0.0000               STORAGE =           0.0000
            CONSTANT =           0.0000              CONSTANT =           0.0000

            TOTAL IN =       19440.0000              TOTAL IN =          43.2000

          OUT:                                     OUT:
          ----                                     ----
                 GWF =       19440.0000                   GWF =          43.2000
            RAINFALL =           0.0000              RAINFALL =           0.0000
         EVAPORATION =           0.0000           EVAPORATION =           0.0000
              RUNOFF =           0.0000                RUNOFF =           0.0000
          EXT-INFLOW =           0.0000            EXT-INFLOW =           0.0000
         EXT-OUTFLOW =           0.0000           EXT-OUTFLOW =           0.0000
             STORAGE =       2.7756E-16               STORAGE =           0.0000
            CONSTANT =           0.0000              CONSTANT =           0.0000

           TOTAL OUT =       19440.0000             TOTAL OUT =          43.2000

            IN - OUT =           0.0000              IN - OUT =           0.0000

 PERCENT DISCREPANCY =           0.00     PERCENT DISCREPANCY =           0.00



  MASS BUDGET FOR ENTIRE MODEL AT END OF TIME STEP   45, STRESS PERIOD   1
  ---------------------------------------------------------------------------------------------------

     CUMULATIVE MASS      M       RATES FOR THIS TIME STEP      M/T          PACKAGE NAME    
     ------------------                 ------------------------                     ----------------

           IN:                                      IN:
           ---                                      ---
     STORAGE-AQUEOUS =       1.4711E-13       STORAGE-AQUEOUS =       5.5582E-16     MST             
               RCH-1 =           0.0000                 RCH-1 =           0.0000     SSM             
               CHD-1 =           0.0000                 CHD-1 =           0.0000     SSM             
     FLOW-CORRECTION =       6.7557E-07       FLOW-CORRECTION =       4.3378E-09                     
                 SFT =       19440.0000                   SFT =          43.2000     SFR-1           

            TOTAL IN =       19440.0000              TOTAL IN =          43.2000

          OUT:                                     OUT:
          ----                                     ----
     STORAGE-AQUEOUS =       19439.9998       STORAGE-AQUEOUS =          43.2000     MST             
               RCH-1 =           0.0000                 RCH-1 =           0.0000     SSM             
               CHD-1 =       7.5239E-72                 CHD-1 =       5.7497E-73     SSM             
     FLOW-CORRECTION =       1.4446E-04       FLOW-CORRECTION =       6.1220E-07                     
                 SFT =           0.0000                   SFT =           0.0000     SFR-1           

           TOTAL OUT =       19440.0000             TOTAL OUT =          43.2000

            IN - OUT =       7.7876E-06              IN - OUT =       1.1596E-08

 PERCENT DISCREPANCY =           0.00     PERCENT DISCREPANCY =           0.00




         TIME SUMMARY AT END OF TIME STEP   45 IN STRESS PERIOD    1
                    SECONDS     MINUTES      HOURS       DAYS        YEARS
                    -----------------------------------------------------------
   TIME STEP LENGTH 8.64000E+05  14400.      240.00      10.000     2.73785E-02
 STRESS PERIOD TIME 3.88800E+07 6.48000E+05  10800.      450.00      1.2320    
         TOTAL TIME 3.88800E+07 6.48000E+05  10800.      450.00      1.2320    


end timestep


start timestep kper="1" kstp="46" mode="normal"


 FMI SETTING BUDGET TERMS FOR KSTP 46 AND KPER 1 TO BUDGET FILE TERMS FROM KSTP 1 AND KPER 1

 FMI SETTING HEAD FOR KSTP 46 AND KPER 1 TO BINARY FILE HEADS FROM KSTP 1 AND KPER 1

 SFR-1 SETTING BUDGET TERMS FOR KSTP 46 AND KPER 1 TO BUDGET FILE TERMS FROM KSTP 1 AND KPER 1

 SFT PACKAGE (SFR-1) FLOW RATES   PERIOD      1   STEP       46
 ----------------------------------------------------------------------------------------
   NUMBER   CELLID                    RATE       NAME                                    
 ----------------------------------------------------------------------------------------
     1      (1,1,169)             21.929568      SFTREACH1                               
     2      (1,1,170)             21.270432      SFTREACH2                               
     3      (1,1,171)             0.0000000      SFTREACH3                               
     4      (1,1,172)             0.0000000      SFTREACH4                               
     5      (1,1,173)             0.0000000      SFTREACH5                               
     6      (1,1,174)             0.0000000      SFTREACH6                               
     7      (1,1,175)             0.0000000      SFTREACH7                               
     8      (1,1,176)             0.0000000      SFTREACH8                               
     9      (1,1,177)             0.0000000      SFTREACH9                               
     10     (1,1,178)             0.0000000      SFTREACH10                              
     11     (1,1,179)             0.0000000      SFTREACH11                              
     12     (1,1,180)             0.0000000      SFTREACH12                              
     13     (1,1,181)             0.0000000      SFTREACH13                              
     14     (1,1,182)             0.0000000      SFTREACH14                              
     15     (1,1,183)             0.0000000      SFTREACH15                              
     16     (1,1,184)             0.0000000      SFTREACH16                              
     17     (1,1,185)             0.0000000      SFTREACH17                              
     18     (1,1,186)             0.0000000      SFTREACH18                              
     19     (1,1,187)             0.0000000      SFTREACH19                              
     20     (1,1,188)             0.0000000      SFTREACH20                              
     21     (1,1,189)             0.0000000      SFTREACH21                              
     22     (1,1,190)             0.0000000      SFTREACH22                              
     23     (1,1,191)             0.0000000      SFTREACH23                              
     24     (1,1,192)             0.0000000      SFTREACH24                              
 ----------------------------------------------------------------------------------------




 SFR-1 PACKAGE - SUMMARY OF FLOWS FOR EACH CONTROL VOLUME   PERIOD      1   STEP       46
 ----------------------------------------------------------------------------------------------------------------------------------------------------------------------
                                                                                                                                                             PERCENT   
   NUMBER      INFLOW      OUTFLOW        GWF        RAINFALL   EVAPORATION     RUNOFF     EXT INFLOW  EXT OUTFLOW    STORAGE      CONSTANT     IN - OUT    DIFFERENCE 
 ----------------------------------------------------------------------------------------------------------------------------------------------------------------------
     1       0.0000      -21.270      -21.930       0.0000       0.0000       0.0000       43.200       0.0000       0.0000       0.0000      -7.10543E-15 -1.64477E-14
     2       21.270       0.0000      -21.270       0.0000       0.0000       0.0000       0.0000       0.0000       0.0000       0.0000       3.55271E-15  1.67026E-14
     3       0.0000       0.0000       0.0000       0.0000       0.0000       0.0000       0.0000       0.0000       0.0000       0.0000       0.0000       0.0000     
     4       0.0000       0.0000       0.0000       0.0000       0.0000       0.0000       0.0000       0.0000       0.0000       0.0000       0.0000       0.0000     
     5       0.0000       0.0000       0.0000       0.0000       0.0000       0.0000       0.0000       0.0000       0.0000       0.0000       0.0000       0.0000     
     6       0.0000       0.0000       0.0000       0.0000       0.0000       0.0000       0.0000       0.0000       0.0000       0.0000       0.0000       0.0000     
     7       0.0000       0.0000       0.0000       0.0000       0.0000       0.0000       0.0000       0.0000       0.0000       0.0000       0.0000       0.0000     
     8       0.0000       0.0000       0.0000       0.0000       0.0000       0.0000       0.0000       0.0000       0.0000       0.0000       0.0000       0.0000     
     9       0.0000       0.0000       0.0000       0.0000       0.0000       0.0000       0.0000       0.0000       0.0000       0.0000       0.0000       0.0000     
     10      0.0000       0.0000       0.0000       0.0000       0.0000       0.0000       0.0000       0.0000       0.0000       0.0000       0.0000       0.0000     
     11      0.0000       0.0000       0.0000       0.0000       0.0000       0.0000       0.0000       0.0000       0.0000       0.0000       0.0000       0.0000     
     12      0.0000       0.0000       0.0000       0.0000       0.0000       0.0000       0.0000       0.0000       0.0000       0.0000       0.0000       0.0000     
     13      0.0000       0.0000       0.0000       0.0000       0.0000       0.0000       0.0000       0.0000       0.0000       0.0000       0.0000       0.0000     
     14      0.0000       0.0000       0.0000       0.0000       0.0000       0.0000       0.0000       0.0000       0.0000       0.0000       0.0000       0.0000     
     15      0.0000       0.0000       0.0000       0.0000       0.0000       0.0000       0.0000       0.0000       0.0000       0.0000       0.0000       0.0000     
     16      0.0000       0.0000       0.0000       0.0000       0.0000       0.0000       0.0000       0.0000       0.0000       0.0000       0.0000       0.0000     
     17      0.0000       0.0000       0.0000       0.0000       0.0000       0.0000       0.0000       0.0000       0.0000       0.0000       0.0000       0.0000     
     18      0.0000       0.0000       0.0000       0.0000       0.0000       0.0000       0.0000       0.0000       0.0000       0.0000       0.0000       0.0000     
     19      0.0000       0.0000       0.0000       0.0000       0.0000       0.0000       0.0000       0.0000       0.0000       0.0000       0.0000       0.0000     
     20      0.0000       0.0000       0.0000       0.0000       0.0000       0.0000       0.0000       0.0000       0.0000       0.0000       0.0000       0.0000     
     21      0.0000       0.0000       0.0000       0.0000       0.0000       0.0000       0.0000       0.0000       0.0000       0.0000       0.0000       0.0000     
     22      0.0000       0.0000       0.0000       0.0000       0.0000       0.0000       0.0000       0.0000       0.0000       0.0000       0.0000       0.0000     
     23      0.0000       0.0000       0.0000       0.0000       0.0000       0.0000       0.0000       0.0000       0.0000       0.0000       0.0000       0.0000     
     24      0.0000       0.0000       0.0000       0.0000       0.0000       0.0000       0.0000       0.0000       0.0000       0.0000       0.0000       0.0000     
 ----------------------------------------------------------------------------------------------------------------------------------------------------------------------




  SFR-1 BUDGET FOR ENTIRE MODEL AT END OF TIME STEP   46, STRESS PERIOD   1
  ------------------------------------------------------------------------------

     CUMULATIVE SFR-1      M       RATES FOR THIS TIME STEP      M/T
     ------------------                 ------------------------

           IN:                                      IN:
           ---                                      ---
                 GWF =           0.0000                   GWF =           0.0000
            RAINFALL =           0.0000              RAINFALL =           0.0000
         EVAPORATION =           0.0000           EVAPORATION =           0.0000
              RUNOFF =           0.0000                RUNOFF =           0.0000
          EXT-INFLOW =       19872.0000            EXT-INFLOW =          43.2000
         EXT-OUTFLOW =           0.0000           EXT-OUTFLOW =           0.0000
             STORAGE =           0.0000               STORAGE =           0.0000
            CONSTANT =           0.0000              CONSTANT =           0.0000

            TOTAL IN =       19872.0000              TOTAL IN =          43.2000

          OUT:                                     OUT:
          ----                                     ----
                 GWF =       19872.0000                   GWF =          43.2000
            RAINFALL =           0.0000              RAINFALL =           0.0000
         EVAPORATION =           0.0000           EVAPORATION =           0.0000
              RUNOFF =           0.0000                RUNOFF =           0.0000
          EXT-INFLOW =           0.0000            EXT-INFLOW =           0.0000
         EXT-OUTFLOW =           0.0000           EXT-OUTFLOW =           0.0000
             STORAGE =       2.7756E-16               STORAGE =           0.0000
            CONSTANT =           0.0000              CONSTANT =           0.0000

           TOTAL OUT =       19872.0000             TOTAL OUT =          43.2000

            IN - OUT =           0.0000              IN - OUT =           0.0000

 PERCENT DISCREPANCY =           0.00     PERCENT DISCREPANCY =           0.00



  MASS BUDGET FOR ENTIRE MODEL AT END OF TIME STEP   46, STRESS PERIOD   1
  ---------------------------------------------------------------------------------------------------

     CUMULATIVE MASS      M       RATES FOR THIS TIME STEP      M/T          PACKAGE NAME    
     ------------------                 ------------------------                     ----------------

           IN:                                      IN:
           ---                                      ---
     STORAGE-AQUEOUS =       1.5267E-13       STORAGE-AQUEOUS =       5.5582E-16     MST             
               RCH-1 =           0.0000                 RCH-1 =           0.0000     SSM             
               CHD-1 =           0.0000                 CHD-1 =           0.0000     SSM             
     FLOW-CORRECTION =       7.2386E-07       FLOW-CORRECTION =       4.8295E-09                     
                 SFT =       19872.0000                   SFT =          43.2000     SFR-1           

            TOTAL IN =       19872.0000              TOTAL IN =          43.2000

          OUT:                                     OUT:
          ----                                     ----
     STORAGE-AQUEOUS =       19871.9998       STORAGE-AQUEOUS =          43.2000     MST             
               RCH-1 =           0.0000                 RCH-1 =           0.0000     SSM             
               CHD-1 =       3.1315E-71                 CHD-1 =       2.3791E-72     SSM             
     FLOW-CORRECTION =       1.5069E-04       FLOW-CORRECTION =       6.2291E-07                     
                 SFT =           0.0000                   SFT =           0.0000     SFR-1           

           TOTAL OUT =       19872.0000             TOTAL OUT =          43.2000

            IN - OUT =       7.9060E-06              IN - OUT =       1.1840E-08

 PERCENT DISCREPANCY =           0.00     PERCENT DISCREPANCY =           0.00




         TIME SUMMARY AT END OF TIME STEP   46 IN STRESS PERIOD    1
                    SECONDS     MINUTES      HOURS       DAYS        YEARS
                    -----------------------------------------------------------
   TIME STEP LENGTH 8.64000E+05  14400.      240.00      10.000     2.73785E-02
 STRESS PERIOD TIME 3.97440E+07 6.62400E+05  11040.      460.00      1.2594    
         TOTAL TIME 3.97440E+07 6.62400E+05  11040.      460.00      1.2594    


end timestep


start timestep kper="1" kstp="47" mode="normal"


 FMI SETTING BUDGET TERMS FOR KSTP 47 AND KPER 1 TO BUDGET FILE TERMS FROM KSTP 1 AND KPER 1

 FMI SETTING HEAD FOR KSTP 47 AND KPER 1 TO BINARY FILE HEADS FROM KSTP 1 AND KPER 1

 SFR-1 SETTING BUDGET TERMS FOR KSTP 47 AND KPER 1 TO BUDGET FILE TERMS FROM KSTP 1 AND KPER 1

 SFT PACKAGE (SFR-1) FLOW RATES   PERIOD      1   STEP       47
 ----------------------------------------------------------------------------------------
   NUMBER   CELLID                    RATE       NAME                                    
 ----------------------------------------------------------------------------------------
     1      (1,1,169)             21.929568      SFTREACH1                               
     2      (1,1,170)             21.270432      SFTREACH2                               
     3      (1,1,171)             0.0000000      SFTREACH3                               
     4      (1,1,172)             0.0000000      SFTREACH4                               
     5      (1,1,173)             0.0000000      SFTREACH5                               
     6      (1,1,174)             0.0000000      SFTREACH6                               
     7      (1,1,175)             0.0000000      SFTREACH7                               
     8      (1,1,176)             0.0000000      SFTREACH8                               
     9      (1,1,177)             0.0000000      SFTREACH9                               
     10     (1,1,178)             0.0000000      SFTREACH10                              
     11     (1,1,179)             0.0000000      SFTREACH11                              
     12     (1,1,180)             0.0000000      SFTREACH12                              
     13     (1,1,181)             0.0000000      SFTREACH13                              
     14     (1,1,182)             0.0000000      SFTREACH14                              
     15     (1,1,183)             0.0000000      SFTREACH15                              
     16     (1,1,184)             0.0000000      SFTREACH16                              
     17     (1,1,185)             0.0000000      SFTREACH17                              
     18     (1,1,186)             0.0000000      SFTREACH18                              
     19     (1,1,187)             0.0000000      SFTREACH19                              
     20     (1,1,188)             0.0000000      SFTREACH20                              
     21     (1,1,189)             0.0000000      SFTREACH21                              
     22     (1,1,190)             0.0000000      SFTREACH22                              
     23     (1,1,191)             0.0000000      SFTREACH23                              
     24     (1,1,192)             0.0000000      SFTREACH24                              
 ----------------------------------------------------------------------------------------




 SFR-1 PACKAGE - SUMMARY OF FLOWS FOR EACH CONTROL VOLUME   PERIOD      1   STEP       47
 ----------------------------------------------------------------------------------------------------------------------------------------------------------------------
                                                                                                                                                             PERCENT   
   NUMBER      INFLOW      OUTFLOW        GWF        RAINFALL   EVAPORATION     RUNOFF     EXT INFLOW  EXT OUTFLOW    STORAGE      CONSTANT     IN - OUT    DIFFERENCE 
 ----------------------------------------------------------------------------------------------------------------------------------------------------------------------
     1       0.0000      -21.270      -21.930       0.0000       0.0000       0.0000       43.200       0.0000       0.0000       0.0000      -7.10543E-15 -1.64477E-14
     2       21.270       0.0000      -21.270       0.0000       0.0000       0.0000       0.0000       0.0000       0.0000       0.0000       3.55271E-15  1.67026E-14
     3       0.0000       0.0000       0.0000       0.0000       0.0000       0.0000       0.0000       0.0000       0.0000       0.0000       0.0000       0.0000     
     4       0.0000       0.0000       0.0000       0.0000       0.0000       0.0000       0.0000       0.0000       0.0000       0.0000       0.0000       0.0000     
     5       0.0000       0.0000       0.0000       0.0000       0.0000       0.0000       0.0000       0.0000       0.0000       0.0000       0.0000       0.0000     
     6       0.0000       0.0000       0.0000       0.0000       0.0000       0.0000       0.0000       0.0000       0.0000       0.0000       0.0000       0.0000     
     7       0.0000       0.0000       0.0000       0.0000       0.0000       0.0000       0.0000       0.0000       0.0000       0.0000       0.0000       0.0000     
     8       0.0000       0.0000       0.0000       0.0000       0.0000       0.0000       0.0000       0.0000       0.0000       0.0000       0.0000       0.0000     
     9       0.0000       0.0000       0.0000       0.0000       0.0000       0.0000       0.0000       0.0000       0.0000       0.0000       0.0000       0.0000     
     10      0.0000       0.0000       0.0000       0.0000       0.0000       0.0000       0.0000       0.0000       0.0000       0.0000       0.0000       0.0000     
     11      0.0000       0.0000       0.0000       0.0000       0.0000       0.0000       0.0000       0.0000       0.0000       0.0000       0.0000       0.0000     
     12      0.0000       0.0000       0.0000       0.0000       0.0000       0.0000       0.0000       0.0000       0.0000       0.0000       0.0000       0.0000     
     13      0.0000       0.0000       0.0000       0.0000       0.0000       0.0000       0.0000       0.0000       0.0000       0.0000       0.0000       0.0000     
     14      0.0000       0.0000       0.0000       0.0000       0.0000       0.0000       0.0000       0.0000       0.0000       0.0000       0.0000       0.0000     
     15      0.0000       0.0000       0.0000       0.0000       0.0000       0.0000       0.0000       0.0000       0.0000       0.0000       0.0000       0.0000     
     16      0.0000       0.0000       0.0000       0.0000       0.0000       0.0000       0.0000       0.0000       0.0000       0.0000       0.0000       0.0000     
     17      0.0000       0.0000       0.0000       0.0000       0.0000       0.0000       0.0000       0.0000       0.0000       0.0000       0.0000       0.0000     
     18      0.0000       0.0000       0.0000       0.0000       0.0000       0.0000       0.0000       0.0000       0.0000       0.0000       0.0000       0.0000     
     19      0.0000       0.0000       0.0000       0.0000       0.0000       0.0000       0.0000       0.0000       0.0000       0.0000       0.0000       0.0000     
     20      0.0000       0.0000       0.0000       0.0000       0.0000       0.0000       0.0000       0.0000       0.0000       0.0000       0.0000       0.0000     
     21      0.0000       0.0000       0.0000       0.0000       0.0000       0.0000       0.0000       0.0000       0.0000       0.0000       0.0000       0.0000     
     22      0.0000       0.0000       0.0000       0.0000       0.0000       0.0000       0.0000       0.0000       0.0000       0.0000       0.0000       0.0000     
     23      0.0000       0.0000       0.0000       0.0000       0.0000       0.0000       0.0000       0.0000       0.0000       0.0000       0.0000       0.0000     
     24      0.0000       0.0000       0.0000       0.0000       0.0000       0.0000       0.0000       0.0000       0.0000       0.0000       0.0000       0.0000     
 ----------------------------------------------------------------------------------------------------------------------------------------------------------------------




  SFR-1 BUDGET FOR ENTIRE MODEL AT END OF TIME STEP   47, STRESS PERIOD   1
  ------------------------------------------------------------------------------

     CUMULATIVE SFR-1      M       RATES FOR THIS TIME STEP      M/T
     ------------------                 ------------------------

           IN:                                      IN:
           ---                                      ---
                 GWF =           0.0000                   GWF =           0.0000
            RAINFALL =           0.0000              RAINFALL =           0.0000
         EVAPORATION =           0.0000           EVAPORATION =           0.0000
              RUNOFF =           0.0000                RUNOFF =           0.0000
          EXT-INFLOW =       20304.0000            EXT-INFLOW =          43.2000
         EXT-OUTFLOW =           0.0000           EXT-OUTFLOW =           0.0000
             STORAGE =           0.0000               STORAGE =           0.0000
            CONSTANT =           0.0000              CONSTANT =           0.0000

            TOTAL IN =       20304.0000              TOTAL IN =          43.2000

          OUT:                                     OUT:
          ----                                     ----
                 GWF =       20304.0000                   GWF =          43.2000
            RAINFALL =           0.0000              RAINFALL =           0.0000
         EVAPORATION =           0.0000           EVAPORATION =           0.0000
              RUNOFF =           0.0000                RUNOFF =           0.0000
          EXT-INFLOW =           0.0000            EXT-INFLOW =           0.0000
         EXT-OUTFLOW =           0.0000           EXT-OUTFLOW =           0.0000
             STORAGE =       2.7756E-16               STORAGE =           0.0000
            CONSTANT =           0.0000              CONSTANT =           0.0000

           TOTAL OUT =       20304.0000             TOTAL OUT =          43.2000

            IN - OUT =           0.0000              IN - OUT =           0.0000

 PERCENT DISCREPANCY =           0.00     PERCENT DISCREPANCY =           0.00



  MASS BUDGET FOR ENTIRE MODEL AT END OF TIME STEP   47, STRESS PERIOD   1
  ---------------------------------------------------------------------------------------------------

     CUMULATIVE MASS      M       RATES FOR THIS TIME STEP      M/T          PACKAGE NAME    
     ------------------                 ------------------------                     ----------------

           IN:                                      IN:
           ---                                      ---
     STORAGE-AQUEOUS =       1.5823E-13       STORAGE-AQUEOUS =       5.5582E-16     MST             
               RCH-1 =           0.0000                 RCH-1 =           0.0000     SSM             
               CHD-1 =           0.0000                 CHD-1 =           0.0000     SSM             
     FLOW-CORRECTION =       7.7769E-07       FLOW-CORRECTION =       5.3829E-09                     
                 SFT =       20304.0000                   SFT =          43.2000     SFR-1           

            TOTAL IN =       20304.0000              TOTAL IN =          43.2000

          OUT:                                     OUT:
          ----                                     ----
     STORAGE-AQUEOUS =       20303.9998       STORAGE-AQUEOUS =          43.2000     MST             
               RCH-1 =           0.0000                 RCH-1 =           0.0000     SSM             
               CHD-1 =       1.2798E-70                 CHD-1 =       9.6666E-72     SSM             
     FLOW-CORRECTION =       1.5702E-04       FLOW-CORRECTION =       6.3350E-07                     
                 SFT =           0.0000                   SFT =           0.0000     SFR-1           

           TOTAL OUT =       20304.0000             TOTAL OUT =          43.2000

            IN - OUT =       8.0252E-06              IN - OUT =       1.1915E-08

 PERCENT DISCREPANCY =           0.00     PERCENT DISCREPANCY =           0.00




         TIME SUMMARY AT END OF TIME STEP   47 IN STRESS PERIOD    1
                    SECONDS     MINUTES      HOURS       DAYS        YEARS
                    -----------------------------------------------------------
   TIME STEP LENGTH 8.64000E+05  14400.      240.00      10.000     2.73785E-02
 STRESS PERIOD TIME 4.06080E+07 6.76800E+05  11280.      470.00      1.2868    
         TOTAL TIME 4.06080E+07 6.76800E+05  11280.      470.00      1.2868    


end timestep


start timestep kper="1" kstp="48" mode="normal"


 FMI SETTING BUDGET TERMS FOR KSTP 48 AND KPER 1 TO BUDGET FILE TERMS FROM KSTP 1 AND KPER 1

 FMI SETTING HEAD FOR KSTP 48 AND KPER 1 TO BINARY FILE HEADS FROM KSTP 1 AND KPER 1

 SFR-1 SETTING BUDGET TERMS FOR KSTP 48 AND KPER 1 TO BUDGET FILE TERMS FROM KSTP 1 AND KPER 1

 SFT PACKAGE (SFR-1) FLOW RATES   PERIOD      1   STEP       48
 ----------------------------------------------------------------------------------------
   NUMBER   CELLID                    RATE       NAME                                    
 ----------------------------------------------------------------------------------------
     1      (1,1,169)             21.929568      SFTREACH1                               
     2      (1,1,170)             21.270432      SFTREACH2                               
     3      (1,1,171)             0.0000000      SFTREACH3                               
     4      (1,1,172)             0.0000000      SFTREACH4                               
     5      (1,1,173)             0.0000000      SFTREACH5                               
     6      (1,1,174)             0.0000000      SFTREACH6                               
     7      (1,1,175)             0.0000000      SFTREACH7                               
     8      (1,1,176)             0.0000000      SFTREACH8                               
     9      (1,1,177)             0.0000000      SFTREACH9                               
     10     (1,1,178)             0.0000000      SFTREACH10                              
     11     (1,1,179)             0.0000000      SFTREACH11                              
     12     (1,1,180)             0.0000000      SFTREACH12                              
     13     (1,1,181)             0.0000000      SFTREACH13                              
     14     (1,1,182)             0.0000000      SFTREACH14                              
     15     (1,1,183)             0.0000000      SFTREACH15                              
     16     (1,1,184)             0.0000000      SFTREACH16                              
     17     (1,1,185)             0.0000000      SFTREACH17                              
     18     (1,1,186)             0.0000000      SFTREACH18                              
     19     (1,1,187)             0.0000000      SFTREACH19                              
     20     (1,1,188)             0.0000000      SFTREACH20                              
     21     (1,1,189)             0.0000000      SFTREACH21                              
     22     (1,1,190)             0.0000000      SFTREACH22                              
     23     (1,1,191)             0.0000000      SFTREACH23                              
     24     (1,1,192)             0.0000000      SFTREACH24                              
 ----------------------------------------------------------------------------------------




 SFR-1 PACKAGE - SUMMARY OF FLOWS FOR EACH CONTROL VOLUME   PERIOD      1   STEP       48
 ----------------------------------------------------------------------------------------------------------------------------------------------------------------------
                                                                                                                                                             PERCENT   
   NUMBER      INFLOW      OUTFLOW        GWF        RAINFALL   EVAPORATION     RUNOFF     EXT INFLOW  EXT OUTFLOW    STORAGE      CONSTANT     IN - OUT    DIFFERENCE 
 ----------------------------------------------------------------------------------------------------------------------------------------------------------------------
     1       0.0000      -21.270      -21.930       0.0000       0.0000       0.0000       43.200       0.0000       0.0000       0.0000      -7.10543E-15 -1.64477E-14
     2       21.270       0.0000      -21.270       0.0000       0.0000       0.0000       0.0000       0.0000       0.0000       0.0000       3.55271E-15  1.67026E-14
     3       0.0000       0.0000       0.0000       0.0000       0.0000       0.0000       0.0000       0.0000       0.0000       0.0000       0.0000       0.0000     
     4       0.0000       0.0000       0.0000       0.0000       0.0000       0.0000       0.0000       0.0000       0.0000       0.0000       0.0000       0.0000     
     5       0.0000       0.0000       0.0000       0.0000       0.0000       0.0000       0.0000       0.0000       0.0000       0.0000       0.0000       0.0000     
     6       0.0000       0.0000       0.0000       0.0000       0.0000       0.0000       0.0000       0.0000       0.0000       0.0000       0.0000       0.0000     
     7       0.0000       0.0000       0.0000       0.0000       0.0000       0.0000       0.0000       0.0000       0.0000       0.0000       0.0000       0.0000     
     8       0.0000       0.0000       0.0000       0.0000       0.0000       0.0000       0.0000       0.0000       0.0000       0.0000       0.0000       0.0000     
     9       0.0000       0.0000       0.0000       0.0000       0.0000       0.0000       0.0000       0.0000       0.0000       0.0000       0.0000       0.0000     
     10      0.0000       0.0000       0.0000       0.0000       0.0000       0.0000       0.0000       0.0000       0.0000       0.0000       0.0000       0.0000     
     11      0.0000       0.0000       0.0000       0.0000       0.0000       0.0000       0.0000       0.0000       0.0000       0.0000       0.0000       0.0000     
     12      0.0000       0.0000       0.0000       0.0000       0.0000       0.0000       0.0000       0.0000       0.0000       0.0000       0.0000       0.0000     
     13      0.0000       0.0000       0.0000       0.0000       0.0000       0.0000       0.0000       0.0000       0.0000       0.0000       0.0000       0.0000     
     14      0.0000       0.0000       0.0000       0.0000       0.0000       0.0000       0.0000       0.0000       0.0000       0.0000       0.0000       0.0000     
     15      0.0000       0.0000       0.0000       0.0000       0.0000       0.0000       0.0000       0.0000       0.0000       0.0000       0.0000       0.0000     
     16      0.0000       0.0000       0.0000       0.0000       0.0000       0.0000       0.0000       0.0000       0.0000       0.0000       0.0000       0.0000     
     17      0.0000       0.0000       0.0000       0.0000       0.0000       0.0000       0.0000       0.0000       0.0000       0.0000       0.0000       0.0000     
     18      0.0000       0.0000       0.0000       0.0000       0.0000       0.0000       0.0000       0.0000       0.0000       0.0000       0.0000       0.0000     
     19      0.0000       0.0000       0.0000       0.0000       0.0000       0.0000       0.0000       0.0000       0.0000       0.0000       0.0000       0.0000     
     20      0.0000       0.0000       0.0000       0.0000       0.0000       0.0000       0.0000       0.0000       0.0000       0.0000       0.0000       0.0000     
     21      0.0000       0.0000       0.0000       0.0000       0.0000       0.0000       0.0000       0.0000       0.0000       0.0000       0.0000       0.0000     
     22      0.0000       0.0000       0.0000       0.0000       0.0000       0.0000       0.0000       0.0000       0.0000       0.0000       0.0000       0.0000     
     23      0.0000       0.0000       0.0000       0.0000       0.0000       0.0000       0.0000       0.0000       0.0000       0.0000       0.0000       0.0000     
     24      0.0000       0.0000       0.0000       0.0000       0.0000       0.0000       0.0000       0.0000       0.0000       0.0000       0.0000       0.0000     
 ----------------------------------------------------------------------------------------------------------------------------------------------------------------------




  SFR-1 BUDGET FOR ENTIRE MODEL AT END OF TIME STEP   48, STRESS PERIOD   1
  ------------------------------------------------------------------------------

     CUMULATIVE SFR-1      M       RATES FOR THIS TIME STEP      M/T
     ------------------                 ------------------------

           IN:                                      IN:
           ---                                      ---
                 GWF =           0.0000                   GWF =           0.0000
            RAINFALL =           0.0000              RAINFALL =           0.0000
         EVAPORATION =           0.0000           EVAPORATION =           0.0000
              RUNOFF =           0.0000                RUNOFF =           0.0000
          EXT-INFLOW =       20736.0000            EXT-INFLOW =          43.2000
         EXT-OUTFLOW =           0.0000           EXT-OUTFLOW =           0.0000
             STORAGE =           0.0000               STORAGE =           0.0000
            CONSTANT =           0.0000              CONSTANT =           0.0000

            TOTAL IN =       20736.0000              TOTAL IN =          43.2000

          OUT:                                     OUT:
          ----                                     ----
                 GWF =       20736.0000                   GWF =          43.2000
            RAINFALL =           0.0000              RAINFALL =           0.0000
         EVAPORATION =           0.0000           EVAPORATION =           0.0000
              RUNOFF =           0.0000                RUNOFF =           0.0000
          EXT-INFLOW =           0.0000            EXT-INFLOW =           0.0000
         EXT-OUTFLOW =           0.0000           EXT-OUTFLOW =           0.0000
             STORAGE =       2.7756E-16               STORAGE =           0.0000
            CONSTANT =           0.0000              CONSTANT =           0.0000

           TOTAL OUT =       20736.0000             TOTAL OUT =          43.2000

            IN - OUT =           0.0000              IN - OUT =           0.0000

 PERCENT DISCREPANCY =           0.00     PERCENT DISCREPANCY =           0.00



  MASS BUDGET FOR ENTIRE MODEL AT END OF TIME STEP   48, STRESS PERIOD   1
  ---------------------------------------------------------------------------------------------------

     CUMULATIVE MASS      M       RATES FOR THIS TIME STEP      M/T          PACKAGE NAME    
     ------------------                 ------------------------                     ----------------

           IN:                                      IN:
           ---                                      ---
     STORAGE-AQUEOUS =       1.6379E-13       STORAGE-AQUEOUS =       5.5582E-16     MST             
               RCH-1 =           0.0000                 RCH-1 =           0.0000     SSM             
               CHD-1 =           0.0000                 CHD-1 =           0.0000     SSM             
     FLOW-CORRECTION =       8.3774E-07       FLOW-CORRECTION =       6.0045E-09                     
                 SFT =       20736.0000                   SFT =          43.2000     SFR-1           

            TOTAL IN =       20736.0000              TOTAL IN =          43.2000

          OUT:                                     OUT:
          ----                                     ----
     STORAGE-AQUEOUS =       20735.9998       STORAGE-AQUEOUS =          43.2000     MST             
               RCH-1 =           0.0000                 RCH-1 =           0.0000     SSM             
               CHD-1 =       5.1383E-70                 CHD-1 =       3.8584E-71     SSM             
     FLOW-CORRECTION =       1.6346E-04       FLOW-CORRECTION =       6.4397E-07                     
                 SFT =           0.0000                   SFT =           0.0000     SFR-1           

           TOTAL OUT =       20736.0000             TOTAL OUT =          43.2000

            IN - OUT =       8.1436E-06              IN - OUT =       1.1842E-08

 PERCENT DISCREPANCY =           0.00     PERCENT DISCREPANCY =           0.00




         TIME SUMMARY AT END OF TIME STEP   48 IN STRESS PERIOD    1
                    SECONDS     MINUTES      HOURS       DAYS        YEARS
                    -----------------------------------------------------------
   TIME STEP LENGTH 8.64000E+05  14400.      240.00      10.000     2.73785E-02
 STRESS PERIOD TIME 4.14720E+07 6.91200E+05  11520.      480.00      1.3142    
         TOTAL TIME 4.14720E+07 6.91200E+05  11520.      480.00      1.3142    


end timestep


start timestep kper="1" kstp="49" mode="normal"


 FMI SETTING BUDGET TERMS FOR KSTP 49 AND KPER 1 TO BUDGET FILE TERMS FROM KSTP 1 AND KPER 1

 FMI SETTING HEAD FOR KSTP 49 AND KPER 1 TO BINARY FILE HEADS FROM KSTP 1 AND KPER 1

 SFR-1 SETTING BUDGET TERMS FOR KSTP 49 AND KPER 1 TO BUDGET FILE TERMS FROM KSTP 1 AND KPER 1

 SFT PACKAGE (SFR-1) FLOW RATES   PERIOD      1   STEP       49
 ----------------------------------------------------------------------------------------
   NUMBER   CELLID                    RATE       NAME                                    
 ----------------------------------------------------------------------------------------
     1      (1,1,169)             21.929568      SFTREACH1                               
     2      (1,1,170)             21.270432      SFTREACH2                               
     3      (1,1,171)             0.0000000      SFTREACH3                               
     4      (1,1,172)             0.0000000      SFTREACH4                               
     5      (1,1,173)             0.0000000      SFTREACH5                               
     6      (1,1,174)             0.0000000      SFTREACH6                               
     7      (1,1,175)             0.0000000      SFTREACH7                               
     8      (1,1,176)             0.0000000      SFTREACH8                               
     9      (1,1,177)             0.0000000      SFTREACH9                               
     10     (1,1,178)             0.0000000      SFTREACH10                              
     11     (1,1,179)             0.0000000      SFTREACH11                              
     12     (1,1,180)             0.0000000      SFTREACH12                              
     13     (1,1,181)             0.0000000      SFTREACH13                              
     14     (1,1,182)             0.0000000      SFTREACH14                              
     15     (1,1,183)             0.0000000      SFTREACH15                              
     16     (1,1,184)             0.0000000      SFTREACH16                              
     17     (1,1,185)             0.0000000      SFTREACH17                              
     18     (1,1,186)             0.0000000      SFTREACH18                              
     19     (1,1,187)             0.0000000      SFTREACH19                              
     20     (1,1,188)             0.0000000      SFTREACH20                              
     21     (1,1,189)             0.0000000      SFTREACH21                              
     22     (1,1,190)             0.0000000      SFTREACH22                              
     23     (1,1,191)             0.0000000      SFTREACH23                              
     24     (1,1,192)             0.0000000      SFTREACH24                              
 ----------------------------------------------------------------------------------------




 SFR-1 PACKAGE - SUMMARY OF FLOWS FOR EACH CONTROL VOLUME   PERIOD      1   STEP       49
 ----------------------------------------------------------------------------------------------------------------------------------------------------------------------
                                                                                                                                                             PERCENT   
   NUMBER      INFLOW      OUTFLOW        GWF        RAINFALL   EVAPORATION     RUNOFF     EXT INFLOW  EXT OUTFLOW    STORAGE      CONSTANT     IN - OUT    DIFFERENCE 
 ----------------------------------------------------------------------------------------------------------------------------------------------------------------------
     1       0.0000      -21.270      -21.930       0.0000       0.0000       0.0000       43.200       0.0000       0.0000       0.0000      -7.10543E-15 -1.64477E-14
     2       21.270       0.0000      -21.270       0.0000       0.0000       0.0000       0.0000       0.0000       0.0000       0.0000       3.55271E-15  1.67026E-14
     3       0.0000       0.0000       0.0000       0.0000       0.0000       0.0000       0.0000       0.0000       0.0000       0.0000       0.0000       0.0000     
     4       0.0000       0.0000       0.0000       0.0000       0.0000       0.0000       0.0000       0.0000       0.0000       0.0000       0.0000       0.0000     
     5       0.0000       0.0000       0.0000       0.0000       0.0000       0.0000       0.0000       0.0000       0.0000       0.0000       0.0000       0.0000     
     6       0.0000       0.0000       0.0000       0.0000       0.0000       0.0000       0.0000       0.0000       0.0000       0.0000       0.0000       0.0000     
     7       0.0000       0.0000       0.0000       0.0000       0.0000       0.0000       0.0000       0.0000       0.0000       0.0000       0.0000       0.0000     
     8       0.0000       0.0000       0.0000       0.0000       0.0000       0.0000       0.0000       0.0000       0.0000       0.0000       0.0000       0.0000     
     9       0.0000       0.0000       0.0000       0.0000       0.0000       0.0000       0.0000       0.0000       0.0000       0.0000       0.0000       0.0000     
     10      0.0000       0.0000       0.0000       0.0000       0.0000       0.0000       0.0000       0.0000       0.0000       0.0000       0.0000       0.0000     
     11      0.0000       0.0000       0.0000       0.0000       0.0000       0.0000       0.0000       0.0000       0.0000       0.0000       0.0000       0.0000     
     12      0.0000       0.0000       0.0000       0.0000       0.0000       0.0000       0.0000       0.0000       0.0000       0.0000       0.0000       0.0000     
     13      0.0000       0.0000       0.0000       0.0000       0.0000       0.0000       0.0000       0.0000       0.0000       0.0000       0.0000       0.0000     
     14      0.0000       0.0000       0.0000       0.0000       0.0000       0.0000       0.0000       0.0000       0.0000       0.0000       0.0000       0.0000     
     15      0.0000       0.0000       0.0000       0.0000       0.0000       0.0000       0.0000       0.0000       0.0000       0.0000       0.0000       0.0000     
     16      0.0000       0.0000       0.0000       0.0000       0.0000       0.0000       0.0000       0.0000       0.0000       0.0000       0.0000       0.0000     
     17      0.0000       0.0000       0.0000       0.0000       0.0000       0.0000       0.0000       0.0000       0.0000       0.0000       0.0000       0.0000     
     18      0.0000       0.0000       0.0000       0.0000       0.0000       0.0000       0.0000       0.0000       0.0000       0.0000       0.0000       0.0000     
     19      0.0000       0.0000       0.0000       0.0000       0.0000       0.0000       0.0000       0.0000       0.0000       0.0000       0.0000       0.0000     
     20      0.0000       0.0000       0.0000       0.0000       0.0000       0.0000       0.0000       0.0000       0.0000       0.0000       0.0000       0.0000     
     21      0.0000       0.0000       0.0000       0.0000       0.0000       0.0000       0.0000       0.0000       0.0000       0.0000       0.0000       0.0000     
     22      0.0000       0.0000       0.0000       0.0000       0.0000       0.0000       0.0000       0.0000       0.0000       0.0000       0.0000       0.0000     
     23      0.0000       0.0000       0.0000       0.0000       0.0000       0.0000       0.0000       0.0000       0.0000       0.0000       0.0000       0.0000     
     24      0.0000       0.0000       0.0000       0.0000       0.0000       0.0000       0.0000       0.0000       0.0000       0.0000       0.0000       0.0000     
 ----------------------------------------------------------------------------------------------------------------------------------------------------------------------




  SFR-1 BUDGET FOR ENTIRE MODEL AT END OF TIME STEP   49, STRESS PERIOD   1
  ------------------------------------------------------------------------------

     CUMULATIVE SFR-1      M       RATES FOR THIS TIME STEP      M/T
     ------------------                 ------------------------

           IN:                                      IN:
           ---                                      ---
                 GWF =           0.0000                   GWF =           0.0000
            RAINFALL =           0.0000              RAINFALL =           0.0000
         EVAPORATION =           0.0000           EVAPORATION =           0.0000
              RUNOFF =           0.0000                RUNOFF =           0.0000
          EXT-INFLOW =       21168.0000            EXT-INFLOW =          43.2000
         EXT-OUTFLOW =           0.0000           EXT-OUTFLOW =           0.0000
             STORAGE =           0.0000               STORAGE =           0.0000
            CONSTANT =           0.0000              CONSTANT =           0.0000

            TOTAL IN =       21168.0000              TOTAL IN =          43.2000

          OUT:                                     OUT:
          ----                                     ----
                 GWF =       21168.0000                   GWF =          43.2000
            RAINFALL =           0.0000              RAINFALL =           0.0000
         EVAPORATION =           0.0000           EVAPORATION =           0.0000
              RUNOFF =           0.0000                RUNOFF =           0.0000
          EXT-INFLOW =           0.0000            EXT-INFLOW =           0.0000
         EXT-OUTFLOW =           0.0000           EXT-OUTFLOW =           0.0000
             STORAGE =       2.7756E-16               STORAGE =           0.0000
            CONSTANT =           0.0000              CONSTANT =           0.0000

           TOTAL OUT =       21168.0000             TOTAL OUT =          43.2000

            IN - OUT =           0.0000              IN - OUT =           0.0000

 PERCENT DISCREPANCY =           0.00     PERCENT DISCREPANCY =           0.00



  MASS BUDGET FOR ENTIRE MODEL AT END OF TIME STEP   49, STRESS PERIOD   1
  ---------------------------------------------------------------------------------------------------

     CUMULATIVE MASS      M       RATES FOR THIS TIME STEP      M/T          PACKAGE NAME    
     ------------------                 ------------------------                     ----------------

           IN:                                      IN:
           ---                                      ---
     STORAGE-AQUEOUS =       1.6935E-13       STORAGE-AQUEOUS =       5.5582E-16     MST             
               RCH-1 =           0.0000                 RCH-1 =           0.0000     SSM             
               CHD-1 =           0.0000                 CHD-1 =           0.0000     SSM             
     FLOW-CORRECTION =       9.0475E-07       FLOW-CORRECTION =       6.7018E-09                     
                 SFT =       21168.0000                   SFT =          43.2000     SFR-1           

            TOTAL IN =       21168.0000              TOTAL IN =          43.2000

          OUT:                                     OUT:
          ----                                     ----
     STORAGE-AQUEOUS =       21167.9998       STORAGE-AQUEOUS =          43.2000     MST             
               RCH-1 =           0.0000                 RCH-1 =           0.0000     SSM             
               CHD-1 =       2.0275E-69                 CHD-1 =       1.5136E-70     SSM             
     FLOW-CORRECTION =       1.7001E-04       FLOW-CORRECTION =       6.5435E-07                     
                 SFT =           0.0000                   SFT =           0.0000     SFR-1           

           TOTAL OUT =       21168.0000             TOTAL OUT =          43.2000

            IN - OUT =       8.2599E-06              IN - OUT =       1.1630E-08

 PERCENT DISCREPANCY =           0.00     PERCENT DISCREPANCY =           0.00




         TIME SUMMARY AT END OF TIME STEP   49 IN STRESS PERIOD    1
                    SECONDS     MINUTES      HOURS       DAYS        YEARS
                    -----------------------------------------------------------
   TIME STEP LENGTH 8.64000E+05  14400.      240.00      10.000     2.73785E-02
 STRESS PERIOD TIME 4.23360E+07 7.05600E+05  11760.      490.00      1.3415    
         TOTAL TIME 4.23360E+07 7.05600E+05  11760.      490.00      1.3415    


end timestep


start timestep kper="1" kstp="50" mode="normal"


 FMI SETTING BUDGET TERMS FOR KSTP 50 AND KPER 1 TO BUDGET FILE TERMS FROM KSTP 1 AND KPER 1

 FMI SETTING HEAD FOR KSTP 50 AND KPER 1 TO BINARY FILE HEADS FROM KSTP 1 AND KPER 1

 SFR-1 SETTING BUDGET TERMS FOR KSTP 50 AND KPER 1 TO BUDGET FILE TERMS FROM KSTP 1 AND KPER 1

 SFT PACKAGE (SFR-1) FLOW RATES   PERIOD      1   STEP       50
 ----------------------------------------------------------------------------------------
   NUMBER   CELLID                    RATE       NAME                                    
 ----------------------------------------------------------------------------------------
     1      (1,1,169)             21.929568      SFTREACH1                               
     2      (1,1,170)             21.270432      SFTREACH2                               
     3      (1,1,171)             0.0000000      SFTREACH3                               
     4      (1,1,172)             0.0000000      SFTREACH4                               
     5      (1,1,173)             0.0000000      SFTREACH5                               
     6      (1,1,174)             0.0000000      SFTREACH6                               
     7      (1,1,175)             0.0000000      SFTREACH7                               
     8      (1,1,176)             0.0000000      SFTREACH8                               
     9      (1,1,177)             0.0000000      SFTREACH9                               
     10     (1,1,178)             0.0000000      SFTREACH10                              
     11     (1,1,179)             0.0000000      SFTREACH11                              
     12     (1,1,180)             0.0000000      SFTREACH12                              
     13     (1,1,181)             0.0000000      SFTREACH13                              
     14     (1,1,182)             0.0000000      SFTREACH14                              
     15     (1,1,183)             0.0000000      SFTREACH15                              
     16     (1,1,184)             0.0000000      SFTREACH16                              
     17     (1,1,185)             0.0000000      SFTREACH17                              
     18     (1,1,186)             0.0000000      SFTREACH18                              
     19     (1,1,187)             0.0000000      SFTREACH19                              
     20     (1,1,188)             0.0000000      SFTREACH20                              
     21     (1,1,189)             0.0000000      SFTREACH21                              
     22     (1,1,190)             0.0000000      SFTREACH22                              
     23     (1,1,191)             0.0000000      SFTREACH23                              
     24     (1,1,192)             0.0000000      SFTREACH24                              
 ----------------------------------------------------------------------------------------




 SFR-1 PACKAGE - SUMMARY OF FLOWS FOR EACH CONTROL VOLUME   PERIOD      1   STEP       50
 ----------------------------------------------------------------------------------------------------------------------------------------------------------------------
                                                                                                                                                             PERCENT   
   NUMBER      INFLOW      OUTFLOW        GWF        RAINFALL   EVAPORATION     RUNOFF     EXT INFLOW  EXT OUTFLOW    STORAGE      CONSTANT     IN - OUT    DIFFERENCE 
 ----------------------------------------------------------------------------------------------------------------------------------------------------------------------
     1       0.0000      -21.270      -21.930       0.0000       0.0000       0.0000       43.200       0.0000       0.0000       0.0000      -7.10543E-15 -1.64477E-14
     2       21.270       0.0000      -21.270       0.0000       0.0000       0.0000       0.0000       0.0000       0.0000       0.0000       3.55271E-15  1.67026E-14
     3       0.0000       0.0000       0.0000       0.0000       0.0000       0.0000       0.0000       0.0000       0.0000       0.0000       0.0000       0.0000     
     4       0.0000       0.0000       0.0000       0.0000       0.0000       0.0000       0.0000       0.0000       0.0000       0.0000       0.0000       0.0000     
     5       0.0000       0.0000       0.0000       0.0000       0.0000       0.0000       0.0000       0.0000       0.0000       0.0000       0.0000       0.0000     
     6       0.0000       0.0000       0.0000       0.0000       0.0000       0.0000       0.0000       0.0000       0.0000       0.0000       0.0000       0.0000     
     7       0.0000       0.0000       0.0000       0.0000       0.0000       0.0000       0.0000       0.0000       0.0000       0.0000       0.0000       0.0000     
     8       0.0000       0.0000       0.0000       0.0000       0.0000       0.0000       0.0000       0.0000       0.0000       0.0000       0.0000       0.0000     
     9       0.0000       0.0000       0.0000       0.0000       0.0000       0.0000       0.0000       0.0000       0.0000       0.0000       0.0000       0.0000     
     10      0.0000       0.0000       0.0000       0.0000       0.0000       0.0000       0.0000       0.0000       0.0000       0.0000       0.0000       0.0000     
     11      0.0000       0.0000       0.0000       0.0000       0.0000       0.0000       0.0000       0.0000       0.0000       0.0000       0.0000       0.0000     
     12      0.0000       0.0000       0.0000       0.0000       0.0000       0.0000       0.0000       0.0000       0.0000       0.0000       0.0000       0.0000     
     13      0.0000       0.0000       0.0000       0.0000       0.0000       0.0000       0.0000       0.0000       0.0000       0.0000       0.0000       0.0000     
     14      0.0000       0.0000       0.0000       0.0000       0.0000       0.0000       0.0000       0.0000       0.0000       0.0000       0.0000       0.0000     
     15      0.0000       0.0000       0.0000       0.0000       0.0000       0.0000       0.0000       0.0000       0.0000       0.0000       0.0000       0.0000     
     16      0.0000       0.0000       0.0000       0.0000       0.0000       0.0000       0.0000       0.0000       0.0000       0.0000       0.0000       0.0000     
     17      0.0000       0.0000       0.0000       0.0000       0.0000       0.0000       0.0000       0.0000       0.0000       0.0000       0.0000       0.0000     
     18      0.0000       0.0000       0.0000       0.0000       0.0000       0.0000       0.0000       0.0000       0.0000       0.0000       0.0000       0.0000     
     19      0.0000       0.0000       0.0000       0.0000       0.0000       0.0000       0.0000       0.0000       0.0000       0.0000       0.0000       0.0000     
     20      0.0000       0.0000       0.0000       0.0000       0.0000       0.0000       0.0000       0.0000       0.0000       0.0000       0.0000       0.0000     
     21      0.0000       0.0000       0.0000       0.0000       0.0000       0.0000       0.0000       0.0000       0.0000       0.0000       0.0000       0.0000     
     22      0.0000       0.0000       0.0000       0.0000       0.0000       0.0000       0.0000       0.0000       0.0000       0.0000       0.0000       0.0000     
     23      0.0000       0.0000       0.0000       0.0000       0.0000       0.0000       0.0000       0.0000       0.0000       0.0000       0.0000       0.0000     
     24      0.0000       0.0000       0.0000       0.0000       0.0000       0.0000       0.0000       0.0000       0.0000       0.0000       0.0000       0.0000     
 ----------------------------------------------------------------------------------------------------------------------------------------------------------------------



 CONCENTRATION WILL BE SAVED ON UNIT 1024 AT END OF TIME STEP   50, STRESS PERIOD    1


  SFR-1 BUDGET FOR ENTIRE MODEL AT END OF TIME STEP   50, STRESS PERIOD   1
  ------------------------------------------------------------------------------

     CUMULATIVE SFR-1      M       RATES FOR THIS TIME STEP      M/T
     ------------------                 ------------------------

           IN:                                      IN:
           ---                                      ---
                 GWF =           0.0000                   GWF =           0.0000
            RAINFALL =           0.0000              RAINFALL =           0.0000
         EVAPORATION =           0.0000           EVAPORATION =           0.0000
              RUNOFF =           0.0000                RUNOFF =           0.0000
          EXT-INFLOW =       21600.0000            EXT-INFLOW =          43.2000
         EXT-OUTFLOW =           0.0000           EXT-OUTFLOW =           0.0000
             STORAGE =           0.0000               STORAGE =           0.0000
            CONSTANT =           0.0000              CONSTANT =           0.0000

            TOTAL IN =       21600.0000              TOTAL IN =          43.2000

          OUT:                                     OUT:
          ----                                     ----
                 GWF =       21600.0000                   GWF =          43.2000
            RAINFALL =           0.0000              RAINFALL =           0.0000
         EVAPORATION =           0.0000           EVAPORATION =           0.0000
              RUNOFF =           0.0000                RUNOFF =           0.0000
          EXT-INFLOW =           0.0000            EXT-INFLOW =           0.0000
         EXT-OUTFLOW =           0.0000           EXT-OUTFLOW =           0.0000
             STORAGE =       2.7756E-16               STORAGE =           0.0000
            CONSTANT =           0.0000              CONSTANT =           0.0000

           TOTAL OUT =       21600.0000             TOTAL OUT =          43.2000

            IN - OUT =           0.0000              IN - OUT =           0.0000

 PERCENT DISCREPANCY =           0.00     PERCENT DISCREPANCY =           0.00



  MASS BUDGET FOR ENTIRE MODEL AT END OF TIME STEP   50, STRESS PERIOD   1
  ---------------------------------------------------------------------------------------------------

     CUMULATIVE MASS      M       RATES FOR THIS TIME STEP      M/T          PACKAGE NAME    
     ------------------                 ------------------------                     ----------------

           IN:                                      IN:
           ---                                      ---
     STORAGE-AQUEOUS =       1.7490E-13       STORAGE-AQUEOUS =       5.5582E-16     MST             
               RCH-1 =           0.0000                 RCH-1 =           0.0000     SSM             
               CHD-1 =           0.0000                 CHD-1 =           0.0000     SSM             
     FLOW-CORRECTION =       9.7958E-07       FLOW-CORRECTION =       7.4828E-09                     
                 SFT =       21600.0000                   SFT =          43.2000     SFR-1           

            TOTAL IN =       21600.0000              TOTAL IN =          43.2000

          OUT:                                     OUT:
          ----                                     ----
     STORAGE-AQUEOUS =       21599.9998       STORAGE-AQUEOUS =          43.2000     MST             
               RCH-1 =           0.0000                 RCH-1 =           0.0000     SSM             
               CHD-1 =       7.8658E-69                 CHD-1 =       5.8383E-70     SSM             
     FLOW-CORRECTION =       1.7665E-04       FLOW-CORRECTION =       6.6463E-07                     
                 SFT =           0.0000                   SFT =           0.0000     SFR-1           

           TOTAL OUT =       21600.0000             TOTAL OUT =          43.2000

            IN - OUT =       8.3728E-06              IN - OUT =       1.1287E-08

 PERCENT DISCREPANCY =           0.00     PERCENT DISCREPANCY =           0.00




         TIME SUMMARY AT END OF TIME STEP   50 IN STRESS PERIOD    1
                    SECONDS     MINUTES      HOURS       DAYS        YEARS
                    -----------------------------------------------------------
   TIME STEP LENGTH 8.64000E+05  14400.      240.00      10.000     2.73785E-02
 STRESS PERIOD TIME 4.32000E+07 7.20000E+05  12000.      500.00      1.3689    
         TOTAL TIME 4.32000E+07 7.20000E+05  12000.      500.00      1.3689    


end timestep


start timestep kper="1" kstp="51" mode="normal"


 FMI SETTING BUDGET TERMS FOR KSTP 51 AND KPER 1 TO BUDGET FILE TERMS FROM KSTP 1 AND KPER 1

 FMI SETTING HEAD FOR KSTP 51 AND KPER 1 TO BINARY FILE HEADS FROM KSTP 1 AND KPER 1

 SFR-1 SETTING BUDGET TERMS FOR KSTP 51 AND KPER 1 TO BUDGET FILE TERMS FROM KSTP 1 AND KPER 1

 SFT PACKAGE (SFR-1) FLOW RATES   PERIOD      1   STEP       51
 ----------------------------------------------------------------------------------------
   NUMBER   CELLID                    RATE       NAME                                    
 ----------------------------------------------------------------------------------------
     1      (1,1,169)             21.929568      SFTREACH1                               
     2      (1,1,170)             21.270432      SFTREACH2                               
     3      (1,1,171)             0.0000000      SFTREACH3                               
     4      (1,1,172)             0.0000000      SFTREACH4                               
     5      (1,1,173)             0.0000000      SFTREACH5                               
     6      (1,1,174)             0.0000000      SFTREACH6                               
     7      (1,1,175)             0.0000000      SFTREACH7                               
     8      (1,1,176)             0.0000000      SFTREACH8                               
     9      (1,1,177)             0.0000000      SFTREACH9                               
     10     (1,1,178)             0.0000000      SFTREACH10                              
     11     (1,1,179)             0.0000000      SFTREACH11                              
     12     (1,1,180)             0.0000000      SFTREACH12                              
     13     (1,1,181)             0.0000000      SFTREACH13                              
     14     (1,1,182)             0.0000000      SFTREACH14                              
     15     (1,1,183)             0.0000000      SFTREACH15                              
     16     (1,1,184)             0.0000000      SFTREACH16                              
     17     (1,1,185)             0.0000000      SFTREACH17                              
     18     (1,1,186)             0.0000000      SFTREACH18                              
     19     (1,1,187)             0.0000000      SFTREACH19                              
     20     (1,1,188)             0.0000000      SFTREACH20                              
     21     (1,1,189)             0.0000000      SFTREACH21                              
     22     (1,1,190)             0.0000000      SFTREACH22                              
     23     (1,1,191)             0.0000000      SFTREACH23                              
     24     (1,1,192)             0.0000000      SFTREACH24                              
 ----------------------------------------------------------------------------------------




 SFR-1 PACKAGE - SUMMARY OF FLOWS FOR EACH CONTROL VOLUME   PERIOD      1   STEP       51
 ----------------------------------------------------------------------------------------------------------------------------------------------------------------------
                                                                                                                                                             PERCENT   
   NUMBER      INFLOW      OUTFLOW        GWF        RAINFALL   EVAPORATION     RUNOFF     EXT INFLOW  EXT OUTFLOW    STORAGE      CONSTANT     IN - OUT    DIFFERENCE 
 ----------------------------------------------------------------------------------------------------------------------------------------------------------------------
     1       0.0000      -21.270      -21.930       0.0000       0.0000       0.0000       43.200       0.0000       0.0000       0.0000      -7.10543E-15 -1.64477E-14
     2       21.270       0.0000      -21.270       0.0000       0.0000       0.0000       0.0000       0.0000       0.0000       0.0000       3.55271E-15  1.67026E-14
     3       0.0000       0.0000       0.0000       0.0000       0.0000       0.0000       0.0000       0.0000       0.0000       0.0000       0.0000       0.0000     
     4       0.0000       0.0000       0.0000       0.0000       0.0000       0.0000       0.0000       0.0000       0.0000       0.0000       0.0000       0.0000     
     5       0.0000       0.0000       0.0000       0.0000       0.0000       0.0000       0.0000       0.0000       0.0000       0.0000       0.0000       0.0000     
     6       0.0000       0.0000       0.0000       0.0000       0.0000       0.0000       0.0000       0.0000       0.0000       0.0000       0.0000       0.0000     
     7       0.0000       0.0000       0.0000       0.0000       0.0000       0.0000       0.0000       0.0000       0.0000       0.0000       0.0000       0.0000     
     8       0.0000       0.0000       0.0000       0.0000       0.0000       0.0000       0.0000       0.0000       0.0000       0.0000       0.0000       0.0000     
     9       0.0000       0.0000       0.0000       0.0000       0.0000       0.0000       0.0000       0.0000       0.0000       0.0000       0.0000       0.0000     
     10      0.0000       0.0000       0.0000       0.0000       0.0000       0.0000       0.0000       0.0000       0.0000       0.0000       0.0000       0.0000     
     11      0.0000       0.0000       0.0000       0.0000       0.0000       0.0000       0.0000       0.0000       0.0000       0.0000       0.0000       0.0000     
     12      0.0000       0.0000       0.0000       0.0000       0.0000       0.0000       0.0000       0.0000       0.0000       0.0000       0.0000       0.0000     
     13      0.0000       0.0000       0.0000       0.0000       0.0000       0.0000       0.0000       0.0000       0.0000       0.0000       0.0000       0.0000     
     14      0.0000       0.0000       0.0000       0.0000       0.0000       0.0000       0.0000       0.0000       0.0000       0.0000       0.0000       0.0000     
     15      0.0000       0.0000       0.0000       0.0000       0.0000       0.0000       0.0000       0.0000       0.0000       0.0000       0.0000       0.0000     
     16      0.0000       0.0000       0.0000       0.0000       0.0000       0.0000       0.0000       0.0000       0.0000       0.0000       0.0000       0.0000     
     17      0.0000       0.0000       0.0000       0.0000       0.0000       0.0000       0.0000       0.0000       0.0000       0.0000       0.0000       0.0000     
     18      0.0000       0.0000       0.0000       0.0000       0.0000       0.0000       0.0000       0.0000       0.0000       0.0000       0.0000       0.0000     
     19      0.0000       0.0000       0.0000       0.0000       0.0000       0.0000       0.0000       0.0000       0.0000       0.0000       0.0000       0.0000     
     20      0.0000       0.0000       0.0000       0.0000       0.0000       0.0000       0.0000       0.0000       0.0000       0.0000       0.0000       0.0000     
     21      0.0000       0.0000       0.0000       0.0000       0.0000       0.0000       0.0000       0.0000       0.0000       0.0000       0.0000       0.0000     
     22      0.0000       0.0000       0.0000       0.0000       0.0000       0.0000       0.0000       0.0000       0.0000       0.0000       0.0000       0.0000     
     23      0.0000       0.0000       0.0000       0.0000       0.0000       0.0000       0.0000       0.0000       0.0000       0.0000       0.0000       0.0000     
     24      0.0000       0.0000       0.0000       0.0000       0.0000       0.0000       0.0000       0.0000       0.0000       0.0000       0.0000       0.0000     
 ----------------------------------------------------------------------------------------------------------------------------------------------------------------------




  SFR-1 BUDGET FOR ENTIRE MODEL AT END OF TIME STEP   51, STRESS PERIOD   1
  ------------------------------------------------------------------------------

     CUMULATIVE SFR-1      M       RATES FOR THIS TIME STEP      M/T
     ------------------                 ------------------------

           IN:                                      IN:
           ---                                      ---
                 GWF =           0.0000                   GWF =           0.0000
            RAINFALL =           0.0000              RAINFALL =           0.0000
         EVAPORATION =           0.0000           EVAPORATION =           0.0000
              RUNOFF =           0.0000                RUNOFF =           0.0000
          EXT-INFLOW =       22032.0000            EXT-INFLOW =          43.2000
         EXT-OUTFLOW =           0.0000           EXT-OUTFLOW =           0.0000
             STORAGE =           0.0000               STORAGE =           0.0000
            CONSTANT =           0.0000              CONSTANT =           0.0000

            TOTAL IN =       22032.0000              TOTAL IN =          43.2000

          OUT:                                     OUT:
          ----                                     ----
                 GWF =       22032.0000                   GWF =          43.2000
            RAINFALL =           0.0000              RAINFALL =           0.0000
         EVAPORATION =           0.0000           EVAPORATION =           0.0000
              RUNOFF =           0.0000                RUNOFF =           0.0000
          EXT-INFLOW =           0.0000            EXT-INFLOW =           0.0000
         EXT-OUTFLOW =           0.0000           EXT-OUTFLOW =           0.0000
             STORAGE =       2.7756E-16               STORAGE =           0.0000
            CONSTANT =           0.0000              CONSTANT =           0.0000

           TOTAL OUT =       22032.0000             TOTAL OUT =          43.2000

            IN - OUT =           0.0000              IN - OUT =           0.0000

 PERCENT DISCREPANCY =           0.00     PERCENT DISCREPANCY =           0.00



  MASS BUDGET FOR ENTIRE MODEL AT END OF TIME STEP   51, STRESS PERIOD   1
  ---------------------------------------------------------------------------------------------------

     CUMULATIVE MASS      M       RATES FOR THIS TIME STEP      M/T          PACKAGE NAME    
     ------------------                 ------------------------                     ----------------

           IN:                                      IN:
           ---                                      ---
     STORAGE-AQUEOUS =       1.8046E-13       STORAGE-AQUEOUS =       5.5582E-16     MST             
               RCH-1 =           0.0000                 RCH-1 =           0.0000     SSM             
               CHD-1 =           0.0000                 CHD-1 =           0.0000     SSM             
     FLOW-CORRECTION =       1.0631E-06       FLOW-CORRECTION =       8.3561E-09                     
                 SFT =       22032.0000                   SFT =          43.2000     SFR-1           

            TOTAL IN =       22032.0000              TOTAL IN =          43.2000

          OUT:                                     OUT:
          ----                                     ----
     STORAGE-AQUEOUS =       22031.9998       STORAGE-AQUEOUS =          43.2000     MST             
               RCH-1 =           0.0000                 RCH-1 =           0.0000     SSM             
               CHD-1 =       3.0016E-68                 CHD-1 =       2.2151E-69     SSM             
     FLOW-CORRECTION =       1.8340E-04       FLOW-CORRECTION =       6.7483E-07                     
                 SFT =           0.0000                   SFT =           0.0000     SFR-1           

           TOTAL OUT =       22032.0000             TOTAL OUT =          43.2000

            IN - OUT =       8.4810E-06              IN - OUT =       1.0820E-08

 PERCENT DISCREPANCY =           0.00     PERCENT DISCREPANCY =           0.00




         TIME SUMMARY AT END OF TIME STEP   51 IN STRESS PERIOD    1
                    SECONDS     MINUTES      HOURS       DAYS        YEARS
                    -----------------------------------------------------------
   TIME STEP LENGTH 8.64000E+05  14400.      240.00      10.000     2.73785E-02
 STRESS PERIOD TIME 4.40640E+07 7.34400E+05  12240.      510.00      1.3963    
         TOTAL TIME 4.40640E+07 7.34400E+05  12240.      510.00      1.3963    


end timestep


start timestep kper="1" kstp="52" mode="normal"


 FMI SETTING BUDGET TERMS FOR KSTP 52 AND KPER 1 TO BUDGET FILE TERMS FROM KSTP 1 AND KPER 1

 FMI SETTING HEAD FOR KSTP 52 AND KPER 1 TO BINARY FILE HEADS FROM KSTP 1 AND KPER 1

 SFR-1 SETTING BUDGET TERMS FOR KSTP 52 AND KPER 1 TO BUDGET FILE TERMS FROM KSTP 1 AND KPER 1

 SFT PACKAGE (SFR-1) FLOW RATES   PERIOD      1   STEP       52
 ----------------------------------------------------------------------------------------
   NUMBER   CELLID                    RATE       NAME                                    
 ----------------------------------------------------------------------------------------
     1      (1,1,169)             21.929568      SFTREACH1                               
     2      (1,1,170)             21.270432      SFTREACH2                               
     3      (1,1,171)             0.0000000      SFTREACH3                               
     4      (1,1,172)             0.0000000      SFTREACH4                               
     5      (1,1,173)             0.0000000      SFTREACH5                               
     6      (1,1,174)             0.0000000      SFTREACH6                               
     7      (1,1,175)             0.0000000      SFTREACH7                               
     8      (1,1,176)             0.0000000      SFTREACH8                               
     9      (1,1,177)             0.0000000      SFTREACH9                               
     10     (1,1,178)             0.0000000      SFTREACH10                              
     11     (1,1,179)             0.0000000      SFTREACH11                              
     12     (1,1,180)             0.0000000      SFTREACH12                              
     13     (1,1,181)             0.0000000      SFTREACH13                              
     14     (1,1,182)             0.0000000      SFTREACH14                              
     15     (1,1,183)             0.0000000      SFTREACH15                              
     16     (1,1,184)             0.0000000      SFTREACH16                              
     17     (1,1,185)             0.0000000      SFTREACH17                              
     18     (1,1,186)             0.0000000      SFTREACH18                              
     19     (1,1,187)             0.0000000      SFTREACH19                              
     20     (1,1,188)             0.0000000      SFTREACH20                              
     21     (1,1,189)             0.0000000      SFTREACH21                              
     22     (1,1,190)             0.0000000      SFTREACH22                              
     23     (1,1,191)             0.0000000      SFTREACH23                              
     24     (1,1,192)             0.0000000      SFTREACH24                              
 ----------------------------------------------------------------------------------------




 SFR-1 PACKAGE - SUMMARY OF FLOWS FOR EACH CONTROL VOLUME   PERIOD      1   STEP       52
 ----------------------------------------------------------------------------------------------------------------------------------------------------------------------
                                                                                                                                                             PERCENT   
   NUMBER      INFLOW      OUTFLOW        GWF        RAINFALL   EVAPORATION     RUNOFF     EXT INFLOW  EXT OUTFLOW    STORAGE      CONSTANT     IN - OUT    DIFFERENCE 
 ----------------------------------------------------------------------------------------------------------------------------------------------------------------------
     1       0.0000      -21.270      -21.930       0.0000       0.0000       0.0000       43.200       0.0000       0.0000       0.0000      -7.10543E-15 -1.64477E-14
     2       21.270       0.0000      -21.270       0.0000       0.0000       0.0000       0.0000       0.0000       0.0000       0.0000       3.55271E-15  1.67026E-14
     3       0.0000       0.0000       0.0000       0.0000       0.0000       0.0000       0.0000       0.0000       0.0000       0.0000       0.0000       0.0000     
     4       0.0000       0.0000       0.0000       0.0000       0.0000       0.0000       0.0000       0.0000       0.0000       0.0000       0.0000       0.0000     
     5       0.0000       0.0000       0.0000       0.0000       0.0000       0.0000       0.0000       0.0000       0.0000       0.0000       0.0000       0.0000     
     6       0.0000       0.0000       0.0000       0.0000       0.0000       0.0000       0.0000       0.0000       0.0000       0.0000       0.0000       0.0000     
     7       0.0000       0.0000       0.0000       0.0000       0.0000       0.0000       0.0000       0.0000       0.0000       0.0000       0.0000       0.0000     
     8       0.0000       0.0000       0.0000       0.0000       0.0000       0.0000       0.0000       0.0000       0.0000       0.0000       0.0000       0.0000     
     9       0.0000       0.0000       0.0000       0.0000       0.0000       0.0000       0.0000       0.0000       0.0000       0.0000       0.0000       0.0000     
     10      0.0000       0.0000       0.0000       0.0000       0.0000       0.0000       0.0000       0.0000       0.0000       0.0000       0.0000       0.0000     
     11      0.0000       0.0000       0.0000       0.0000       0.0000       0.0000       0.0000       0.0000       0.0000       0.0000       0.0000       0.0000     
     12      0.0000       0.0000       0.0000       0.0000       0.0000       0.0000       0.0000       0.0000       0.0000       0.0000       0.0000       0.0000     
     13      0.0000       0.0000       0.0000       0.0000       0.0000       0.0000       0.0000       0.0000       0.0000       0.0000       0.0000       0.0000     
     14      0.0000       0.0000       0.0000       0.0000       0.0000       0.0000       0.0000       0.0000       0.0000       0.0000       0.0000       0.0000     
     15      0.0000       0.0000       0.0000       0.0000       0.0000       0.0000       0.0000       0.0000       0.0000       0.0000       0.0000       0.0000     
     16      0.0000       0.0000       0.0000       0.0000       0.0000       0.0000       0.0000       0.0000       0.0000       0.0000       0.0000       0.0000     
     17      0.0000       0.0000       0.0000       0.0000       0.0000       0.0000       0.0000       0.0000       0.0000       0.0000       0.0000       0.0000     
     18      0.0000       0.0000       0.0000       0.0000       0.0000       0.0000       0.0000       0.0000       0.0000       0.0000       0.0000       0.0000     
     19      0.0000       0.0000       0.0000       0.0000       0.0000       0.0000       0.0000       0.0000       0.0000       0.0000       0.0000       0.0000     
     20      0.0000       0.0000       0.0000       0.0000       0.0000       0.0000       0.0000       0.0000       0.0000       0.0000       0.0000       0.0000     
     21      0.0000       0.0000       0.0000       0.0000       0.0000       0.0000       0.0000       0.0000       0.0000       0.0000       0.0000       0.0000     
     22      0.0000       0.0000       0.0000       0.0000       0.0000       0.0000       0.0000       0.0000       0.0000       0.0000       0.0000       0.0000     
     23      0.0000       0.0000       0.0000       0.0000       0.0000       0.0000       0.0000       0.0000       0.0000       0.0000       0.0000       0.0000     
     24      0.0000       0.0000       0.0000       0.0000       0.0000       0.0000       0.0000       0.0000       0.0000       0.0000       0.0000       0.0000     
 ----------------------------------------------------------------------------------------------------------------------------------------------------------------------




  SFR-1 BUDGET FOR ENTIRE MODEL AT END OF TIME STEP   52, STRESS PERIOD   1
  ------------------------------------------------------------------------------

     CUMULATIVE SFR-1      M       RATES FOR THIS TIME STEP      M/T
     ------------------                 ------------------------

           IN:                                      IN:
           ---                                      ---
                 GWF =           0.0000                   GWF =           0.0000
            RAINFALL =           0.0000              RAINFALL =           0.0000
         EVAPORATION =           0.0000           EVAPORATION =           0.0000
              RUNOFF =           0.0000                RUNOFF =           0.0000
          EXT-INFLOW =       22464.0000            EXT-INFLOW =          43.2000
         EXT-OUTFLOW =           0.0000           EXT-OUTFLOW =           0.0000
             STORAGE =           0.0000               STORAGE =           0.0000
            CONSTANT =           0.0000              CONSTANT =           0.0000

            TOTAL IN =       22464.0000              TOTAL IN =          43.2000

          OUT:                                     OUT:
          ----                                     ----
                 GWF =       22464.0000                   GWF =          43.2000
            RAINFALL =           0.0000              RAINFALL =           0.0000
         EVAPORATION =           0.0000           EVAPORATION =           0.0000
              RUNOFF =           0.0000                RUNOFF =           0.0000
          EXT-INFLOW =           0.0000            EXT-INFLOW =           0.0000
         EXT-OUTFLOW =           0.0000           EXT-OUTFLOW =           0.0000
             STORAGE =       2.7756E-16               STORAGE =           0.0000
            CONSTANT =           0.0000              CONSTANT =           0.0000

           TOTAL OUT =       22464.0000             TOTAL OUT =          43.2000

            IN - OUT =           0.0000              IN - OUT =           0.0000

 PERCENT DISCREPANCY =           0.00     PERCENT DISCREPANCY =           0.00



  MASS BUDGET FOR ENTIRE MODEL AT END OF TIME STEP   52, STRESS PERIOD   1
  ---------------------------------------------------------------------------------------------------

     CUMULATIVE MASS      M       RATES FOR THIS TIME STEP      M/T          PACKAGE NAME    
     ------------------                 ------------------------                     ----------------

           IN:                                      IN:
           ---                                      ---
     STORAGE-AQUEOUS =       1.8602E-13       STORAGE-AQUEOUS =       5.5582E-16     MST             
               RCH-1 =           0.0000                 RCH-1 =           0.0000     SSM             
               CHD-1 =           0.0000                 CHD-1 =           0.0000     SSM             
     FLOW-CORRECTION =       1.1565E-06       FLOW-CORRECTION =       9.3312E-09                     
                 SFT =       22464.0000                   SFT =          43.2000     SFR-1           

            TOTAL IN =       22464.0000              TOTAL IN =          43.2000

          OUT:                                     OUT:
          ----                                     ----
     STORAGE-AQUEOUS =       22463.9998       STORAGE-AQUEOUS =          43.2000     MST             
               RCH-1 =           0.0000                 RCH-1 =           0.0000     SSM             
               CHD-1 =       1.1271E-67                 CHD-1 =       8.2696E-69     SSM             
     FLOW-CORRECTION =       1.9025E-04       FLOW-CORRECTION =       6.8495E-07                     
                 SFT =           0.0000                   SFT =           0.0000     SFR-1           

           TOTAL OUT =       22464.0000             TOTAL OUT =          43.2000

            IN - OUT =       8.5833E-06              IN - OUT =       1.0235E-08

 PERCENT DISCREPANCY =           0.00     PERCENT DISCREPANCY =           0.00




         TIME SUMMARY AT END OF TIME STEP   52 IN STRESS PERIOD    1
                    SECONDS     MINUTES      HOURS       DAYS        YEARS
                    -----------------------------------------------------------
   TIME STEP LENGTH 8.64000E+05  14400.      240.00      10.000     2.73785E-02
 STRESS PERIOD TIME 4.49280E+07 7.48800E+05  12480.      520.00      1.4237    
         TOTAL TIME 4.49280E+07 7.48800E+05  12480.      520.00      1.4237    


end timestep


start timestep kper="1" kstp="53" mode="normal"


 FMI SETTING BUDGET TERMS FOR KSTP 53 AND KPER 1 TO BUDGET FILE TERMS FROM KSTP 1 AND KPER 1

 FMI SETTING HEAD FOR KSTP 53 AND KPER 1 TO BINARY FILE HEADS FROM KSTP 1 AND KPER 1

 SFR-1 SETTING BUDGET TERMS FOR KSTP 53 AND KPER 1 TO BUDGET FILE TERMS FROM KSTP 1 AND KPER 1

 SFT PACKAGE (SFR-1) FLOW RATES   PERIOD      1   STEP       53
 ----------------------------------------------------------------------------------------
   NUMBER   CELLID                    RATE       NAME                                    
 ----------------------------------------------------------------------------------------
     1      (1,1,169)             21.929568      SFTREACH1                               
     2      (1,1,170)             21.270432      SFTREACH2                               
     3      (1,1,171)             0.0000000      SFTREACH3                               
     4      (1,1,172)             0.0000000      SFTREACH4                               
     5      (1,1,173)             0.0000000      SFTREACH5                               
     6      (1,1,174)             0.0000000      SFTREACH6                               
     7      (1,1,175)             0.0000000      SFTREACH7                               
     8      (1,1,176)             0.0000000      SFTREACH8                               
     9      (1,1,177)             0.0000000      SFTREACH9                               
     10     (1,1,178)             0.0000000      SFTREACH10                              
     11     (1,1,179)             0.0000000      SFTREACH11                              
     12     (1,1,180)             0.0000000      SFTREACH12                              
     13     (1,1,181)             0.0000000      SFTREACH13                              
     14     (1,1,182)             0.0000000      SFTREACH14                              
     15     (1,1,183)             0.0000000      SFTREACH15                              
     16     (1,1,184)             0.0000000      SFTREACH16                              
     17     (1,1,185)             0.0000000      SFTREACH17                              
     18     (1,1,186)             0.0000000      SFTREACH18                              
     19     (1,1,187)             0.0000000      SFTREACH19                              
     20     (1,1,188)             0.0000000      SFTREACH20                              
     21     (1,1,189)             0.0000000      SFTREACH21                              
     22     (1,1,190)             0.0000000      SFTREACH22                              
     23     (1,1,191)             0.0000000      SFTREACH23                              
     24     (1,1,192)             0.0000000      SFTREACH24                              
 ----------------------------------------------------------------------------------------




 SFR-1 PACKAGE - SUMMARY OF FLOWS FOR EACH CONTROL VOLUME   PERIOD      1   STEP       53
 ----------------------------------------------------------------------------------------------------------------------------------------------------------------------
                                                                                                                                                             PERCENT   
   NUMBER      INFLOW      OUTFLOW        GWF        RAINFALL   EVAPORATION     RUNOFF     EXT INFLOW  EXT OUTFLOW    STORAGE      CONSTANT     IN - OUT    DIFFERENCE 
 ----------------------------------------------------------------------------------------------------------------------------------------------------------------------
     1       0.0000      -21.270      -21.930       0.0000       0.0000       0.0000       43.200       0.0000       0.0000       0.0000      -7.10543E-15 -1.64477E-14
     2       21.270       0.0000      -21.270       0.0000       0.0000       0.0000       0.0000       0.0000       0.0000       0.0000       3.55271E-15  1.67026E-14
     3       0.0000       0.0000       0.0000       0.0000       0.0000       0.0000       0.0000       0.0000       0.0000       0.0000       0.0000       0.0000     
     4       0.0000       0.0000       0.0000       0.0000       0.0000       0.0000       0.0000       0.0000       0.0000       0.0000       0.0000       0.0000     
     5       0.0000       0.0000       0.0000       0.0000       0.0000       0.0000       0.0000       0.0000       0.0000       0.0000       0.0000       0.0000     
     6       0.0000       0.0000       0.0000       0.0000       0.0000       0.0000       0.0000       0.0000       0.0000       0.0000       0.0000       0.0000     
     7       0.0000       0.0000       0.0000       0.0000       0.0000       0.0000       0.0000       0.0000       0.0000       0.0000       0.0000       0.0000     
     8       0.0000       0.0000       0.0000       0.0000       0.0000       0.0000       0.0000       0.0000       0.0000       0.0000       0.0000       0.0000     
     9       0.0000       0.0000       0.0000       0.0000       0.0000       0.0000       0.0000       0.0000       0.0000       0.0000       0.0000       0.0000     
     10      0.0000       0.0000       0.0000       0.0000       0.0000       0.0000       0.0000       0.0000       0.0000       0.0000       0.0000       0.0000     
     11      0.0000       0.0000       0.0000       0.0000       0.0000       0.0000       0.0000       0.0000       0.0000       0.0000       0.0000       0.0000     
     12      0.0000       0.0000       0.0000       0.0000       0.0000       0.0000       0.0000       0.0000       0.0000       0.0000       0.0000       0.0000     
     13      0.0000       0.0000       0.0000       0.0000       0.0000       0.0000       0.0000       0.0000       0.0000       0.0000       0.0000       0.0000     
     14      0.0000       0.0000       0.0000       0.0000       0.0000       0.0000       0.0000       0.0000       0.0000       0.0000       0.0000       0.0000     
     15      0.0000       0.0000       0.0000       0.0000       0.0000       0.0000       0.0000       0.0000       0.0000       0.0000       0.0000       0.0000     
     16      0.0000       0.0000       0.0000       0.0000       0.0000       0.0000       0.0000       0.0000       0.0000       0.0000       0.0000       0.0000     
     17      0.0000       0.0000       0.0000       0.0000       0.0000       0.0000       0.0000       0.0000       0.0000       0.0000       0.0000       0.0000     
     18      0.0000       0.0000       0.0000       0.0000       0.0000       0.0000       0.0000       0.0000       0.0000       0.0000       0.0000       0.0000     
     19      0.0000       0.0000       0.0000       0.0000       0.0000       0.0000       0.0000       0.0000       0.0000       0.0000       0.0000       0.0000     
     20      0.0000       0.0000       0.0000       0.0000       0.0000       0.0000       0.0000       0.0000       0.0000       0.0000       0.0000       0.0000     
     21      0.0000       0.0000       0.0000       0.0000       0.0000       0.0000       0.0000       0.0000       0.0000       0.0000       0.0000       0.0000     
     22      0.0000       0.0000       0.0000       0.0000       0.0000       0.0000       0.0000       0.0000       0.0000       0.0000       0.0000       0.0000     
     23      0.0000       0.0000       0.0000       0.0000       0.0000       0.0000       0.0000       0.0000       0.0000       0.0000       0.0000       0.0000     
     24      0.0000       0.0000       0.0000       0.0000       0.0000       0.0000       0.0000       0.0000       0.0000       0.0000       0.0000       0.0000     
 ----------------------------------------------------------------------------------------------------------------------------------------------------------------------




  SFR-1 BUDGET FOR ENTIRE MODEL AT END OF TIME STEP   53, STRESS PERIOD   1
  ------------------------------------------------------------------------------

     CUMULATIVE SFR-1      M       RATES FOR THIS TIME STEP      M/T
     ------------------                 ------------------------

           IN:                                      IN:
           ---                                      ---
                 GWF =           0.0000                   GWF =           0.0000
            RAINFALL =           0.0000              RAINFALL =           0.0000
         EVAPORATION =           0.0000           EVAPORATION =           0.0000
              RUNOFF =           0.0000                RUNOFF =           0.0000
          EXT-INFLOW =       22896.0000            EXT-INFLOW =          43.2000
         EXT-OUTFLOW =           0.0000           EXT-OUTFLOW =           0.0000
             STORAGE =           0.0000               STORAGE =           0.0000
            CONSTANT =           0.0000              CONSTANT =           0.0000

            TOTAL IN =       22896.0000              TOTAL IN =          43.2000

          OUT:                                     OUT:
          ----                                     ----
                 GWF =       22896.0000                   GWF =          43.2000
            RAINFALL =           0.0000              RAINFALL =           0.0000
         EVAPORATION =           0.0000           EVAPORATION =           0.0000
              RUNOFF =           0.0000                RUNOFF =           0.0000
          EXT-INFLOW =           0.0000            EXT-INFLOW =           0.0000
         EXT-OUTFLOW =           0.0000           EXT-OUTFLOW =           0.0000
             STORAGE =       2.7756E-16               STORAGE =           0.0000
            CONSTANT =           0.0000              CONSTANT =           0.0000

           TOTAL OUT =       22896.0000             TOTAL OUT =          43.2000

            IN - OUT =           0.0000              IN - OUT =           0.0000

 PERCENT DISCREPANCY =           0.00     PERCENT DISCREPANCY =           0.00



  MASS BUDGET FOR ENTIRE MODEL AT END OF TIME STEP   53, STRESS PERIOD   1
  ---------------------------------------------------------------------------------------------------

     CUMULATIVE MASS      M       RATES FOR THIS TIME STEP      M/T          PACKAGE NAME    
     ------------------                 ------------------------                     ----------------

           IN:                                      IN:
           ---                                      ---
     STORAGE-AQUEOUS =       1.9158E-13       STORAGE-AQUEOUS =       5.5582E-16     MST             
               RCH-1 =           0.0000                 RCH-1 =           0.0000     SSM             
               CHD-1 =           0.0000                 CHD-1 =           0.0000     SSM             
     FLOW-CORRECTION =       1.2606E-06       FLOW-CORRECTION =       1.0418E-08                     
                 SFT =       22896.0000                   SFT =          43.2000     SFR-1           

            TOTAL IN =       22896.0000              TOTAL IN =          43.2000

          OUT:                                     OUT:
          ----                                     ----
     STORAGE-AQUEOUS =       22895.9998       STORAGE-AQUEOUS =          43.2000     MST             
               RCH-1 =           0.0000                 RCH-1 =           0.0000     SSM             
               CHD-1 =       4.1662E-67                 CHD-1 =       3.0391E-68     SSM             
     FLOW-CORRECTION =       1.9720E-04       FLOW-CORRECTION =       6.9499E-07                     
                 SFT =           0.0000                   SFT =           0.0000     SFR-1           

           TOTAL OUT =       22896.0000             TOTAL OUT =          43.2000

            IN - OUT =       8.6787E-06              IN - OUT =       9.5450E-09

 PERCENT DISCREPANCY =           0.00     PERCENT DISCREPANCY =           0.00




         TIME SUMMARY AT END OF TIME STEP   53 IN STRESS PERIOD    1
                    SECONDS     MINUTES      HOURS       DAYS        YEARS
                    -----------------------------------------------------------
   TIME STEP LENGTH 8.64000E+05  14400.      240.00      10.000     2.73785E-02
 STRESS PERIOD TIME 4.57920E+07 7.63200E+05  12720.      530.00      1.4511    
         TOTAL TIME 4.57920E+07 7.63200E+05  12720.      530.00      1.4511    


end timestep


start timestep kper="1" kstp="54" mode="normal"


 FMI SETTING BUDGET TERMS FOR KSTP 54 AND KPER 1 TO BUDGET FILE TERMS FROM KSTP 1 AND KPER 1

 FMI SETTING HEAD FOR KSTP 54 AND KPER 1 TO BINARY FILE HEADS FROM KSTP 1 AND KPER 1

 SFR-1 SETTING BUDGET TERMS FOR KSTP 54 AND KPER 1 TO BUDGET FILE TERMS FROM KSTP 1 AND KPER 1

 SFT PACKAGE (SFR-1) FLOW RATES   PERIOD      1   STEP       54
 ----------------------------------------------------------------------------------------
   NUMBER   CELLID                    RATE       NAME                                    
 ----------------------------------------------------------------------------------------
     1      (1,1,169)             21.929568      SFTREACH1                               
     2      (1,1,170)             21.270432      SFTREACH2                               
     3      (1,1,171)             0.0000000      SFTREACH3                               
     4      (1,1,172)             0.0000000      SFTREACH4                               
     5      (1,1,173)             0.0000000      SFTREACH5                               
     6      (1,1,174)             0.0000000      SFTREACH6                               
     7      (1,1,175)             0.0000000      SFTREACH7                               
     8      (1,1,176)             0.0000000      SFTREACH8                               
     9      (1,1,177)             0.0000000      SFTREACH9                               
     10     (1,1,178)             0.0000000      SFTREACH10                              
     11     (1,1,179)             0.0000000      SFTREACH11                              
     12     (1,1,180)             0.0000000      SFTREACH12                              
     13     (1,1,181)             0.0000000      SFTREACH13                              
     14     (1,1,182)             0.0000000      SFTREACH14                              
     15     (1,1,183)             0.0000000      SFTREACH15                              
     16     (1,1,184)             0.0000000      SFTREACH16                              
     17     (1,1,185)             0.0000000      SFTREACH17                              
     18     (1,1,186)             0.0000000      SFTREACH18                              
     19     (1,1,187)             0.0000000      SFTREACH19                              
     20     (1,1,188)             0.0000000      SFTREACH20                              
     21     (1,1,189)             0.0000000      SFTREACH21                              
     22     (1,1,190)             0.0000000      SFTREACH22                              
     23     (1,1,191)             0.0000000      SFTREACH23                              
     24     (1,1,192)             0.0000000      SFTREACH24                              
 ----------------------------------------------------------------------------------------




 SFR-1 PACKAGE - SUMMARY OF FLOWS FOR EACH CONTROL VOLUME   PERIOD      1   STEP       54
 ----------------------------------------------------------------------------------------------------------------------------------------------------------------------
                                                                                                                                                             PERCENT   
   NUMBER      INFLOW      OUTFLOW        GWF        RAINFALL   EVAPORATION     RUNOFF     EXT INFLOW  EXT OUTFLOW    STORAGE      CONSTANT     IN - OUT    DIFFERENCE 
 ----------------------------------------------------------------------------------------------------------------------------------------------------------------------
     1       0.0000      -21.270      -21.930       0.0000       0.0000       0.0000       43.200       0.0000       0.0000       0.0000      -7.10543E-15 -1.64477E-14
     2       21.270       0.0000      -21.270       0.0000       0.0000       0.0000       0.0000       0.0000       0.0000       0.0000       3.55271E-15  1.67026E-14
     3       0.0000       0.0000       0.0000       0.0000       0.0000       0.0000       0.0000       0.0000       0.0000       0.0000       0.0000       0.0000     
     4       0.0000       0.0000       0.0000       0.0000       0.0000       0.0000       0.0000       0.0000       0.0000       0.0000       0.0000       0.0000     
     5       0.0000       0.0000       0.0000       0.0000       0.0000       0.0000       0.0000       0.0000       0.0000       0.0000       0.0000       0.0000     
     6       0.0000       0.0000       0.0000       0.0000       0.0000       0.0000       0.0000       0.0000       0.0000       0.0000       0.0000       0.0000     
     7       0.0000       0.0000       0.0000       0.0000       0.0000       0.0000       0.0000       0.0000       0.0000       0.0000       0.0000       0.0000     
     8       0.0000       0.0000       0.0000       0.0000       0.0000       0.0000       0.0000       0.0000       0.0000       0.0000       0.0000       0.0000     
     9       0.0000       0.0000       0.0000       0.0000       0.0000       0.0000       0.0000       0.0000       0.0000       0.0000       0.0000       0.0000     
     10      0.0000       0.0000       0.0000       0.0000       0.0000       0.0000       0.0000       0.0000       0.0000       0.0000       0.0000       0.0000     
     11      0.0000       0.0000       0.0000       0.0000       0.0000       0.0000       0.0000       0.0000       0.0000       0.0000       0.0000       0.0000     
     12      0.0000       0.0000       0.0000       0.0000       0.0000       0.0000       0.0000       0.0000       0.0000       0.0000       0.0000       0.0000     
     13      0.0000       0.0000       0.0000       0.0000       0.0000       0.0000       0.0000       0.0000       0.0000       0.0000       0.0000       0.0000     
     14      0.0000       0.0000       0.0000       0.0000       0.0000       0.0000       0.0000       0.0000       0.0000       0.0000       0.0000       0.0000     
     15      0.0000       0.0000       0.0000       0.0000       0.0000       0.0000       0.0000       0.0000       0.0000       0.0000       0.0000       0.0000     
     16      0.0000       0.0000       0.0000       0.0000       0.0000       0.0000       0.0000       0.0000       0.0000       0.0000       0.0000       0.0000     
     17      0.0000       0.0000       0.0000       0.0000       0.0000       0.0000       0.0000       0.0000       0.0000       0.0000       0.0000       0.0000     
     18      0.0000       0.0000       0.0000       0.0000       0.0000       0.0000       0.0000       0.0000       0.0000       0.0000       0.0000       0.0000     
     19      0.0000       0.0000       0.0000       0.0000       0.0000       0.0000       0.0000       0.0000       0.0000       0.0000       0.0000       0.0000     
     20      0.0000       0.0000       0.0000       0.0000       0.0000       0.0000       0.0000       0.0000       0.0000       0.0000       0.0000       0.0000     
     21      0.0000       0.0000       0.0000       0.0000       0.0000       0.0000       0.0000       0.0000       0.0000       0.0000       0.0000       0.0000     
     22      0.0000       0.0000       0.0000       0.0000       0.0000       0.0000       0.0000       0.0000       0.0000       0.0000       0.0000       0.0000     
     23      0.0000       0.0000       0.0000       0.0000       0.0000       0.0000       0.0000       0.0000       0.0000       0.0000       0.0000       0.0000     
     24      0.0000       0.0000       0.0000       0.0000       0.0000       0.0000       0.0000       0.0000       0.0000       0.0000       0.0000       0.0000     
 ----------------------------------------------------------------------------------------------------------------------------------------------------------------------




  SFR-1 BUDGET FOR ENTIRE MODEL AT END OF TIME STEP   54, STRESS PERIOD   1
  ------------------------------------------------------------------------------

     CUMULATIVE SFR-1      M       RATES FOR THIS TIME STEP      M/T
     ------------------                 ------------------------

           IN:                                      IN:
           ---                                      ---
                 GWF =           0.0000                   GWF =           0.0000
            RAINFALL =           0.0000              RAINFALL =           0.0000
         EVAPORATION =           0.0000           EVAPORATION =           0.0000
              RUNOFF =           0.0000                RUNOFF =           0.0000
          EXT-INFLOW =       23328.0000            EXT-INFLOW =          43.2000
         EXT-OUTFLOW =           0.0000           EXT-OUTFLOW =           0.0000
             STORAGE =           0.0000               STORAGE =           0.0000
            CONSTANT =           0.0000              CONSTANT =           0.0000

            TOTAL IN =       23328.0000              TOTAL IN =          43.2000

          OUT:                                     OUT:
          ----                                     ----
                 GWF =       23328.0000                   GWF =          43.2000
            RAINFALL =           0.0000              RAINFALL =           0.0000
         EVAPORATION =           0.0000           EVAPORATION =           0.0000
              RUNOFF =           0.0000                RUNOFF =           0.0000
          EXT-INFLOW =           0.0000            EXT-INFLOW =           0.0000
         EXT-OUTFLOW =           0.0000           EXT-OUTFLOW =           0.0000
             STORAGE =       2.7756E-16               STORAGE =           0.0000
            CONSTANT =           0.0000              CONSTANT =           0.0000

           TOTAL OUT =       23328.0000             TOTAL OUT =          43.2000

            IN - OUT =           0.0000              IN - OUT =           0.0000

 PERCENT DISCREPANCY =           0.00     PERCENT DISCREPANCY =           0.00



  MASS BUDGET FOR ENTIRE MODEL AT END OF TIME STEP   54, STRESS PERIOD   1
  ---------------------------------------------------------------------------------------------------

     CUMULATIVE MASS      M       RATES FOR THIS TIME STEP      M/T          PACKAGE NAME    
     ------------------                 ------------------------                     ----------------

           IN:                                      IN:
           ---                                      ---
     STORAGE-AQUEOUS =       1.9714E-13       STORAGE-AQUEOUS =       5.5582E-16     MST             
               RCH-1 =           0.0000                 RCH-1 =           0.0000     SSM             
               CHD-1 =           0.0000                 CHD-1 =           0.0000     SSM             
     FLOW-CORRECTION =       1.3769E-06       FLOW-CORRECTION =       1.1628E-08                     
                 SFT =       23328.0000                   SFT =          43.2000     SFR-1           

            TOTAL IN =       23328.0000              TOTAL IN =          43.2000

          OUT:                                     OUT:
          ----                                     ----
     STORAGE-AQUEOUS =       23327.9998       STORAGE-AQUEOUS =          43.2000     MST             
               RCH-1 =           0.0000                 RCH-1 =           0.0000     SSM             
               CHD-1 =       1.5164E-66                 CHD-1 =       1.0998E-67     SSM             
     FLOW-CORRECTION =       2.0425E-04       FLOW-CORRECTION =       7.0497E-07                     
                 SFT =           0.0000                   SFT =           0.0000     SFR-1           

           TOTAL OUT =       23328.0000             TOTAL OUT =          43.2000

            IN - OUT =       8.7664E-06              IN - OUT =       8.7647E-09

 PERCENT DISCREPANCY =           0.00     PERCENT DISCREPANCY =           0.00




         TIME SUMMARY AT END OF TIME STEP   54 IN STRESS PERIOD    1
                    SECONDS     MINUTES      HOURS       DAYS        YEARS
                    -----------------------------------------------------------
   TIME STEP LENGTH 8.64000E+05  14400.      240.00      10.000     2.73785E-02
 STRESS PERIOD TIME 4.66560E+07 7.77600E+05  12960.      540.00      1.4784    
         TOTAL TIME 4.66560E+07 7.77600E+05  12960.      540.00      1.4784    


end timestep


start timestep kper="1" kstp="55" mode="normal"


 FMI SETTING BUDGET TERMS FOR KSTP 55 AND KPER 1 TO BUDGET FILE TERMS FROM KSTP 1 AND KPER 1

 FMI SETTING HEAD FOR KSTP 55 AND KPER 1 TO BINARY FILE HEADS FROM KSTP 1 AND KPER 1

 SFR-1 SETTING BUDGET TERMS FOR KSTP 55 AND KPER 1 TO BUDGET FILE TERMS FROM KSTP 1 AND KPER 1

 SFT PACKAGE (SFR-1) FLOW RATES   PERIOD      1   STEP       55
 ----------------------------------------------------------------------------------------
   NUMBER   CELLID                    RATE       NAME                                    
 ----------------------------------------------------------------------------------------
     1      (1,1,169)             21.929568      SFTREACH1                               
     2      (1,1,170)             21.270432      SFTREACH2                               
     3      (1,1,171)             0.0000000      SFTREACH3                               
     4      (1,1,172)             0.0000000      SFTREACH4                               
     5      (1,1,173)             0.0000000      SFTREACH5                               
     6      (1,1,174)             0.0000000      SFTREACH6                               
     7      (1,1,175)             0.0000000      SFTREACH7                               
     8      (1,1,176)             0.0000000      SFTREACH8                               
     9      (1,1,177)             0.0000000      SFTREACH9                               
     10     (1,1,178)             0.0000000      SFTREACH10                              
     11     (1,1,179)             0.0000000      SFTREACH11                              
     12     (1,1,180)             0.0000000      SFTREACH12                              
     13     (1,1,181)             0.0000000      SFTREACH13                              
     14     (1,1,182)             0.0000000      SFTREACH14                              
     15     (1,1,183)             0.0000000      SFTREACH15                              
     16     (1,1,184)             0.0000000      SFTREACH16                              
     17     (1,1,185)             0.0000000      SFTREACH17                              
     18     (1,1,186)             0.0000000      SFTREACH18                              
     19     (1,1,187)             0.0000000      SFTREACH19                              
     20     (1,1,188)             0.0000000      SFTREACH20                              
     21     (1,1,189)             0.0000000      SFTREACH21                              
     22     (1,1,190)             0.0000000      SFTREACH22                              
     23     (1,1,191)             0.0000000      SFTREACH23                              
     24     (1,1,192)             0.0000000      SFTREACH24                              
 ----------------------------------------------------------------------------------------




 SFR-1 PACKAGE - SUMMARY OF FLOWS FOR EACH CONTROL VOLUME   PERIOD      1   STEP       55
 ----------------------------------------------------------------------------------------------------------------------------------------------------------------------
                                                                                                                                                             PERCENT   
   NUMBER      INFLOW      OUTFLOW        GWF        RAINFALL   EVAPORATION     RUNOFF     EXT INFLOW  EXT OUTFLOW    STORAGE      CONSTANT     IN - OUT    DIFFERENCE 
 ----------------------------------------------------------------------------------------------------------------------------------------------------------------------
     1       0.0000      -21.270      -21.930       0.0000       0.0000       0.0000       43.200       0.0000       0.0000       0.0000      -7.10543E-15 -1.64477E-14
     2       21.270       0.0000      -21.270       0.0000       0.0000       0.0000       0.0000       0.0000       0.0000       0.0000       3.55271E-15  1.67026E-14
     3       0.0000       0.0000       0.0000       0.0000       0.0000       0.0000       0.0000       0.0000       0.0000       0.0000       0.0000       0.0000     
     4       0.0000       0.0000       0.0000       0.0000       0.0000       0.0000       0.0000       0.0000       0.0000       0.0000       0.0000       0.0000     
     5       0.0000       0.0000       0.0000       0.0000       0.0000       0.0000       0.0000       0.0000       0.0000       0.0000       0.0000       0.0000     
     6       0.0000       0.0000       0.0000       0.0000       0.0000       0.0000       0.0000       0.0000       0.0000       0.0000       0.0000       0.0000     
     7       0.0000       0.0000       0.0000       0.0000       0.0000       0.0000       0.0000       0.0000       0.0000       0.0000       0.0000       0.0000     
     8       0.0000       0.0000       0.0000       0.0000       0.0000       0.0000       0.0000       0.0000       0.0000       0.0000       0.0000       0.0000     
     9       0.0000       0.0000       0.0000       0.0000       0.0000       0.0000       0.0000       0.0000       0.0000       0.0000       0.0000       0.0000     
     10      0.0000       0.0000       0.0000       0.0000       0.0000       0.0000       0.0000       0.0000       0.0000       0.0000       0.0000       0.0000     
     11      0.0000       0.0000       0.0000       0.0000       0.0000       0.0000       0.0000       0.0000       0.0000       0.0000       0.0000       0.0000     
     12      0.0000       0.0000       0.0000       0.0000       0.0000       0.0000       0.0000       0.0000       0.0000       0.0000       0.0000       0.0000     
     13      0.0000       0.0000       0.0000       0.0000       0.0000       0.0000       0.0000       0.0000       0.0000       0.0000       0.0000       0.0000     
     14      0.0000       0.0000       0.0000       0.0000       0.0000       0.0000       0.0000       0.0000       0.0000       0.0000       0.0000       0.0000     
     15      0.0000       0.0000       0.0000       0.0000       0.0000       0.0000       0.0000       0.0000       0.0000       0.0000       0.0000       0.0000     
     16      0.0000       0.0000       0.0000       0.0000       0.0000       0.0000       0.0000       0.0000       0.0000       0.0000       0.0000       0.0000     
     17      0.0000       0.0000       0.0000       0.0000       0.0000       0.0000       0.0000       0.0000       0.0000       0.0000       0.0000       0.0000     
     18      0.0000       0.0000       0.0000       0.0000       0.0000       0.0000       0.0000       0.0000       0.0000       0.0000       0.0000       0.0000     
     19      0.0000       0.0000       0.0000       0.0000       0.0000       0.0000       0.0000       0.0000       0.0000       0.0000       0.0000       0.0000     
     20      0.0000       0.0000       0.0000       0.0000       0.0000       0.0000       0.0000       0.0000       0.0000       0.0000       0.0000       0.0000     
     21      0.0000       0.0000       0.0000       0.0000       0.0000       0.0000       0.0000       0.0000       0.0000       0.0000       0.0000       0.0000     
     22      0.0000       0.0000       0.0000       0.0000       0.0000       0.0000       0.0000       0.0000       0.0000       0.0000       0.0000       0.0000     
     23      0.0000       0.0000       0.0000       0.0000       0.0000       0.0000       0.0000       0.0000       0.0000       0.0000       0.0000       0.0000     
     24      0.0000       0.0000       0.0000       0.0000       0.0000       0.0000       0.0000       0.0000       0.0000       0.0000       0.0000       0.0000     
 ----------------------------------------------------------------------------------------------------------------------------------------------------------------------




  SFR-1 BUDGET FOR ENTIRE MODEL AT END OF TIME STEP   55, STRESS PERIOD   1
  ------------------------------------------------------------------------------

     CUMULATIVE SFR-1      M       RATES FOR THIS TIME STEP      M/T
     ------------------                 ------------------------

           IN:                                      IN:
           ---                                      ---
                 GWF =           0.0000                   GWF =           0.0000
            RAINFALL =           0.0000              RAINFALL =           0.0000
         EVAPORATION =           0.0000           EVAPORATION =           0.0000
              RUNOFF =           0.0000                RUNOFF =           0.0000
          EXT-INFLOW =       23760.0000            EXT-INFLOW =          43.2000
         EXT-OUTFLOW =           0.0000           EXT-OUTFLOW =           0.0000
             STORAGE =           0.0000               STORAGE =           0.0000
            CONSTANT =           0.0000              CONSTANT =           0.0000

            TOTAL IN =       23760.0000              TOTAL IN =          43.2000

          OUT:                                     OUT:
          ----                                     ----
                 GWF =       23760.0000                   GWF =          43.2000
            RAINFALL =           0.0000              RAINFALL =           0.0000
         EVAPORATION =           0.0000           EVAPORATION =           0.0000
              RUNOFF =           0.0000                RUNOFF =           0.0000
          EXT-INFLOW =           0.0000            EXT-INFLOW =           0.0000
         EXT-OUTFLOW =           0.0000           EXT-OUTFLOW =           0.0000
             STORAGE =       2.7756E-16               STORAGE =           0.0000
            CONSTANT =           0.0000              CONSTANT =           0.0000

           TOTAL OUT =       23760.0000             TOTAL OUT =          43.2000

            IN - OUT =           0.0000              IN - OUT =           0.0000

 PERCENT DISCREPANCY =           0.00     PERCENT DISCREPANCY =           0.00



  MASS BUDGET FOR ENTIRE MODEL AT END OF TIME STEP   55, STRESS PERIOD   1
  ---------------------------------------------------------------------------------------------------

     CUMULATIVE MASS      M       RATES FOR THIS TIME STEP      M/T          PACKAGE NAME    
     ------------------                 ------------------------                     ----------------

           IN:                                      IN:
           ---                                      ---
     STORAGE-AQUEOUS =       2.0270E-13       STORAGE-AQUEOUS =       5.5582E-16     MST             
               RCH-1 =           0.0000                 RCH-1 =           0.0000     SSM             
               CHD-1 =           0.0000                 CHD-1 =           0.0000     SSM             
     FLOW-CORRECTION =       1.5066E-06       FLOW-CORRECTION =       1.2972E-08                     
                 SFT =       23760.0000                   SFT =          43.2000     SFR-1           

            TOTAL IN =       23760.0000              TOTAL IN =          43.2000

          OUT:                                     OUT:
          ----                                     ----
     STORAGE-AQUEOUS =       23759.9998       STORAGE-AQUEOUS =          43.2000     MST             
               RCH-1 =           0.0000                 RCH-1 =           0.0000     SSM             
               CHD-1 =       5.4370E-66                 CHD-1 =       3.9206E-67     SSM             
     FLOW-CORRECTION =       2.1140E-04       FLOW-CORRECTION =       7.1487E-07                     
                 SFT =           0.0000                   SFT =           0.0000     SFR-1           

           TOTAL OUT =       23760.0000             TOTAL OUT =          43.2000

            IN - OUT =       8.8455E-06              IN - OUT =       7.9140E-09

 PERCENT DISCREPANCY =           0.00     PERCENT DISCREPANCY =           0.00




         TIME SUMMARY AT END OF TIME STEP   55 IN STRESS PERIOD    1
                    SECONDS     MINUTES      HOURS       DAYS        YEARS
                    -----------------------------------------------------------
   TIME STEP LENGTH 8.64000E+05  14400.      240.00      10.000     2.73785E-02
 STRESS PERIOD TIME 4.75200E+07 7.92000E+05  13200.      550.00      1.5058    
         TOTAL TIME 4.75200E+07 7.92000E+05  13200.      550.00      1.5058    


end timestep


start timestep kper="1" kstp="56" mode="normal"


 FMI SETTING BUDGET TERMS FOR KSTP 56 AND KPER 1 TO BUDGET FILE TERMS FROM KSTP 1 AND KPER 1

 FMI SETTING HEAD FOR KSTP 56 AND KPER 1 TO BINARY FILE HEADS FROM KSTP 1 AND KPER 1

 SFR-1 SETTING BUDGET TERMS FOR KSTP 56 AND KPER 1 TO BUDGET FILE TERMS FROM KSTP 1 AND KPER 1

 SFT PACKAGE (SFR-1) FLOW RATES   PERIOD      1   STEP       56
 ----------------------------------------------------------------------------------------
   NUMBER   CELLID                    RATE       NAME                                    
 ----------------------------------------------------------------------------------------
     1      (1,1,169)             21.929568      SFTREACH1                               
     2      (1,1,170)             21.270432      SFTREACH2                               
     3      (1,1,171)             0.0000000      SFTREACH3                               
     4      (1,1,172)             0.0000000      SFTREACH4                               
     5      (1,1,173)             0.0000000      SFTREACH5                               
     6      (1,1,174)             0.0000000      SFTREACH6                               
     7      (1,1,175)             0.0000000      SFTREACH7                               
     8      (1,1,176)             0.0000000      SFTREACH8                               
     9      (1,1,177)             0.0000000      SFTREACH9                               
     10     (1,1,178)             0.0000000      SFTREACH10                              
     11     (1,1,179)             0.0000000      SFTREACH11                              
     12     (1,1,180)             0.0000000      SFTREACH12                              
     13     (1,1,181)             0.0000000      SFTREACH13                              
     14     (1,1,182)             0.0000000      SFTREACH14                              
     15     (1,1,183)             0.0000000      SFTREACH15                              
     16     (1,1,184)             0.0000000      SFTREACH16                              
     17     (1,1,185)             0.0000000      SFTREACH17                              
     18     (1,1,186)             0.0000000      SFTREACH18                              
     19     (1,1,187)             0.0000000      SFTREACH19                              
     20     (1,1,188)             0.0000000      SFTREACH20                              
     21     (1,1,189)             0.0000000      SFTREACH21                              
     22     (1,1,190)             0.0000000      SFTREACH22                              
     23     (1,1,191)             0.0000000      SFTREACH23                              
     24     (1,1,192)             0.0000000      SFTREACH24                              
 ----------------------------------------------------------------------------------------




 SFR-1 PACKAGE - SUMMARY OF FLOWS FOR EACH CONTROL VOLUME   PERIOD      1   STEP       56
 ----------------------------------------------------------------------------------------------------------------------------------------------------------------------
                                                                                                                                                             PERCENT   
   NUMBER      INFLOW      OUTFLOW        GWF        RAINFALL   EVAPORATION     RUNOFF     EXT INFLOW  EXT OUTFLOW    STORAGE      CONSTANT     IN - OUT    DIFFERENCE 
 ----------------------------------------------------------------------------------------------------------------------------------------------------------------------
     1       0.0000      -21.270      -21.930       0.0000       0.0000       0.0000       43.200       0.0000       0.0000       0.0000      -7.10543E-15 -1.64477E-14
     2       21.270       0.0000      -21.270       0.0000       0.0000       0.0000       0.0000       0.0000       0.0000       0.0000       3.55271E-15  1.67026E-14
     3       0.0000       0.0000       0.0000       0.0000       0.0000       0.0000       0.0000       0.0000       0.0000       0.0000       0.0000       0.0000     
     4       0.0000       0.0000       0.0000       0.0000       0.0000       0.0000       0.0000       0.0000       0.0000       0.0000       0.0000       0.0000     
     5       0.0000       0.0000       0.0000       0.0000       0.0000       0.0000       0.0000       0.0000       0.0000       0.0000       0.0000       0.0000     
     6       0.0000       0.0000       0.0000       0.0000       0.0000       0.0000       0.0000       0.0000       0.0000       0.0000       0.0000       0.0000     
     7       0.0000       0.0000       0.0000       0.0000       0.0000       0.0000       0.0000       0.0000       0.0000       0.0000       0.0000       0.0000     
     8       0.0000       0.0000       0.0000       0.0000       0.0000       0.0000       0.0000       0.0000       0.0000       0.0000       0.0000       0.0000     
     9       0.0000       0.0000       0.0000       0.0000       0.0000       0.0000       0.0000       0.0000       0.0000       0.0000       0.0000       0.0000     
     10      0.0000       0.0000       0.0000       0.0000       0.0000       0.0000       0.0000       0.0000       0.0000       0.0000       0.0000       0.0000     
     11      0.0000       0.0000       0.0000       0.0000       0.0000       0.0000       0.0000       0.0000       0.0000       0.0000       0.0000       0.0000     
     12      0.0000       0.0000       0.0000       0.0000       0.0000       0.0000       0.0000       0.0000       0.0000       0.0000       0.0000       0.0000     
     13      0.0000       0.0000       0.0000       0.0000       0.0000       0.0000       0.0000       0.0000       0.0000       0.0000       0.0000       0.0000     
     14      0.0000       0.0000       0.0000       0.0000       0.0000       0.0000       0.0000       0.0000       0.0000       0.0000       0.0000       0.0000     
     15      0.0000       0.0000       0.0000       0.0000       0.0000       0.0000       0.0000       0.0000       0.0000       0.0000       0.0000       0.0000     
     16      0.0000       0.0000       0.0000       0.0000       0.0000       0.0000       0.0000       0.0000       0.0000       0.0000       0.0000       0.0000     
     17      0.0000       0.0000       0.0000       0.0000       0.0000       0.0000       0.0000       0.0000       0.0000       0.0000       0.0000       0.0000     
     18      0.0000       0.0000       0.0000       0.0000       0.0000       0.0000       0.0000       0.0000       0.0000       0.0000       0.0000       0.0000     
     19      0.0000       0.0000       0.0000       0.0000       0.0000       0.0000       0.0000       0.0000       0.0000       0.0000       0.0000       0.0000     
     20      0.0000       0.0000       0.0000       0.0000       0.0000       0.0000       0.0000       0.0000       0.0000       0.0000       0.0000       0.0000     
     21      0.0000       0.0000       0.0000       0.0000       0.0000       0.0000       0.0000       0.0000       0.0000       0.0000       0.0000       0.0000     
     22      0.0000       0.0000       0.0000       0.0000       0.0000       0.0000       0.0000       0.0000       0.0000       0.0000       0.0000       0.0000     
     23      0.0000       0.0000       0.0000       0.0000       0.0000       0.0000       0.0000       0.0000       0.0000       0.0000       0.0000       0.0000     
     24      0.0000       0.0000       0.0000       0.0000       0.0000       0.0000       0.0000       0.0000       0.0000       0.0000       0.0000       0.0000     
 ----------------------------------------------------------------------------------------------------------------------------------------------------------------------




  SFR-1 BUDGET FOR ENTIRE MODEL AT END OF TIME STEP   56, STRESS PERIOD   1
  ------------------------------------------------------------------------------

     CUMULATIVE SFR-1      M       RATES FOR THIS TIME STEP      M/T
     ------------------                 ------------------------

           IN:                                      IN:
           ---                                      ---
                 GWF =           0.0000                   GWF =           0.0000
            RAINFALL =           0.0000              RAINFALL =           0.0000
         EVAPORATION =           0.0000           EVAPORATION =           0.0000
              RUNOFF =           0.0000                RUNOFF =           0.0000
          EXT-INFLOW =       24192.0000            EXT-INFLOW =          43.2000
         EXT-OUTFLOW =           0.0000           EXT-OUTFLOW =           0.0000
             STORAGE =           0.0000               STORAGE =           0.0000
            CONSTANT =           0.0000              CONSTANT =           0.0000

            TOTAL IN =       24192.0000              TOTAL IN =          43.2000

          OUT:                                     OUT:
          ----                                     ----
                 GWF =       24192.0000                   GWF =          43.2000
            RAINFALL =           0.0000              RAINFALL =           0.0000
         EVAPORATION =           0.0000           EVAPORATION =           0.0000
              RUNOFF =           0.0000                RUNOFF =           0.0000
          EXT-INFLOW =           0.0000            EXT-INFLOW =           0.0000
         EXT-OUTFLOW =           0.0000           EXT-OUTFLOW =           0.0000
             STORAGE =       2.7756E-16               STORAGE =           0.0000
            CONSTANT =           0.0000              CONSTANT =           0.0000

           TOTAL OUT =       24192.0000             TOTAL OUT =          43.2000

            IN - OUT =           0.0000              IN - OUT =           0.0000

 PERCENT DISCREPANCY =           0.00     PERCENT DISCREPANCY =           0.00



  MASS BUDGET FOR ENTIRE MODEL AT END OF TIME STEP   56, STRESS PERIOD   1
  ---------------------------------------------------------------------------------------------------

     CUMULATIVE MASS      M       RATES FOR THIS TIME STEP      M/T          PACKAGE NAME    
     ------------------                 ------------------------                     ----------------

           IN:                                      IN:
           ---                                      ---
     STORAGE-AQUEOUS =       2.0825E-13       STORAGE-AQUEOUS =       5.5582E-16     MST             
               RCH-1 =           0.0000                 RCH-1 =           0.0000     SSM             
               CHD-1 =           0.0000                 CHD-1 =           0.0000     SSM             
     FLOW-CORRECTION =       1.6513E-06       FLOW-CORRECTION =       1.4463E-08                     
                 SFT =       24192.0000                   SFT =          43.2000     SFR-1           

            TOTAL IN =       24192.0000              TOTAL IN =          43.2000

          OUT:                                     OUT:
          ----                                     ----
     STORAGE-AQUEOUS =       24191.9998       STORAGE-AQUEOUS =          43.2000     MST             
               RCH-1 =           0.0000                 RCH-1 =           0.0000     SSM             
               CHD-1 =       1.9209E-65                 CHD-1 =       1.3772E-66     SSM             
     FLOW-CORRECTION =       2.1865E-04       FLOW-CORRECTION =       7.2472E-07                     
                 SFT =           0.0000                   SFT =           0.0000     SFR-1           

           TOTAL OUT =       24192.0000             TOTAL OUT =          43.2000

            IN - OUT =       8.9157E-06              IN - OUT =       7.0180E-09

 PERCENT DISCREPANCY =           0.00     PERCENT DISCREPANCY =           0.00




         TIME SUMMARY AT END OF TIME STEP   56 IN STRESS PERIOD    1
                    SECONDS     MINUTES      HOURS       DAYS        YEARS
                    -----------------------------------------------------------
   TIME STEP LENGTH 8.64000E+05  14400.      240.00      10.000     2.73785E-02
 STRESS PERIOD TIME 4.83840E+07 8.06400E+05  13440.      560.00      1.5332    
         TOTAL TIME 4.83840E+07 8.06400E+05  13440.      560.00      1.5332    


end timestep


start timestep kper="1" kstp="57" mode="normal"


 FMI SETTING BUDGET TERMS FOR KSTP 57 AND KPER 1 TO BUDGET FILE TERMS FROM KSTP 1 AND KPER 1

 FMI SETTING HEAD FOR KSTP 57 AND KPER 1 TO BINARY FILE HEADS FROM KSTP 1 AND KPER 1

 SFR-1 SETTING BUDGET TERMS FOR KSTP 57 AND KPER 1 TO BUDGET FILE TERMS FROM KSTP 1 AND KPER 1

 SFT PACKAGE (SFR-1) FLOW RATES   PERIOD      1   STEP       57
 ----------------------------------------------------------------------------------------
   NUMBER   CELLID                    RATE       NAME                                    
 ----------------------------------------------------------------------------------------
     1      (1,1,169)             21.929568      SFTREACH1                               
     2      (1,1,170)             21.270432      SFTREACH2                               
     3      (1,1,171)             0.0000000      SFTREACH3                               
     4      (1,1,172)             0.0000000      SFTREACH4                               
     5      (1,1,173)             0.0000000      SFTREACH5                               
     6      (1,1,174)             0.0000000      SFTREACH6                               
     7      (1,1,175)             0.0000000      SFTREACH7                               
     8      (1,1,176)             0.0000000      SFTREACH8                               
     9      (1,1,177)             0.0000000      SFTREACH9                               
     10     (1,1,178)             0.0000000      SFTREACH10                              
     11     (1,1,179)             0.0000000      SFTREACH11                              
     12     (1,1,180)             0.0000000      SFTREACH12                              
     13     (1,1,181)             0.0000000      SFTREACH13                              
     14     (1,1,182)             0.0000000      SFTREACH14                              
     15     (1,1,183)             0.0000000      SFTREACH15                              
     16     (1,1,184)             0.0000000      SFTREACH16                              
     17     (1,1,185)             0.0000000      SFTREACH17                              
     18     (1,1,186)             0.0000000      SFTREACH18                              
     19     (1,1,187)             0.0000000      SFTREACH19                              
     20     (1,1,188)             0.0000000      SFTREACH20                              
     21     (1,1,189)             0.0000000      SFTREACH21                              
     22     (1,1,190)             0.0000000      SFTREACH22                              
     23     (1,1,191)             0.0000000      SFTREACH23                              
     24     (1,1,192)             0.0000000      SFTREACH24                              
 ----------------------------------------------------------------------------------------




 SFR-1 PACKAGE - SUMMARY OF FLOWS FOR EACH CONTROL VOLUME   PERIOD      1   STEP       57
 ----------------------------------------------------------------------------------------------------------------------------------------------------------------------
                                                                                                                                                             PERCENT   
   NUMBER      INFLOW      OUTFLOW        GWF        RAINFALL   EVAPORATION     RUNOFF     EXT INFLOW  EXT OUTFLOW    STORAGE      CONSTANT     IN - OUT    DIFFERENCE 
 ----------------------------------------------------------------------------------------------------------------------------------------------------------------------
     1       0.0000      -21.270      -21.930       0.0000       0.0000       0.0000       43.200       0.0000       0.0000       0.0000      -7.10543E-15 -1.64477E-14
     2       21.270       0.0000      -21.270       0.0000       0.0000       0.0000       0.0000       0.0000       0.0000       0.0000       3.55271E-15  1.67026E-14
     3       0.0000       0.0000       0.0000       0.0000       0.0000       0.0000       0.0000       0.0000       0.0000       0.0000       0.0000       0.0000     
     4       0.0000       0.0000       0.0000       0.0000       0.0000       0.0000       0.0000       0.0000       0.0000       0.0000       0.0000       0.0000     
     5       0.0000       0.0000       0.0000       0.0000       0.0000       0.0000       0.0000       0.0000       0.0000       0.0000       0.0000       0.0000     
     6       0.0000       0.0000       0.0000       0.0000       0.0000       0.0000       0.0000       0.0000       0.0000       0.0000       0.0000       0.0000     
     7       0.0000       0.0000       0.0000       0.0000       0.0000       0.0000       0.0000       0.0000       0.0000       0.0000       0.0000       0.0000     
     8       0.0000       0.0000       0.0000       0.0000       0.0000       0.0000       0.0000       0.0000       0.0000       0.0000       0.0000       0.0000     
     9       0.0000       0.0000       0.0000       0.0000       0.0000       0.0000       0.0000       0.0000       0.0000       0.0000       0.0000       0.0000     
     10      0.0000       0.0000       0.0000       0.0000       0.0000       0.0000       0.0000       0.0000       0.0000       0.0000       0.0000       0.0000     
     11      0.0000       0.0000       0.0000       0.0000       0.0000       0.0000       0.0000       0.0000       0.0000       0.0000       0.0000       0.0000     
     12      0.0000       0.0000       0.0000       0.0000       0.0000       0.0000       0.0000       0.0000       0.0000       0.0000       0.0000       0.0000     
     13      0.0000       0.0000       0.0000       0.0000       0.0000       0.0000       0.0000       0.0000       0.0000       0.0000       0.0000       0.0000     
     14      0.0000       0.0000       0.0000       0.0000       0.0000       0.0000       0.0000       0.0000       0.0000       0.0000       0.0000       0.0000     
     15      0.0000       0.0000       0.0000       0.0000       0.0000       0.0000       0.0000       0.0000       0.0000       0.0000       0.0000       0.0000     
     16      0.0000       0.0000       0.0000       0.0000       0.0000       0.0000       0.0000       0.0000       0.0000       0.0000       0.0000       0.0000     
     17      0.0000       0.0000       0.0000       0.0000       0.0000       0.0000       0.0000       0.0000       0.0000       0.0000       0.0000       0.0000     
     18      0.0000       0.0000       0.0000       0.0000       0.0000       0.0000       0.0000       0.0000       0.0000       0.0000       0.0000       0.0000     
     19      0.0000       0.0000       0.0000       0.0000       0.0000       0.0000       0.0000       0.0000       0.0000       0.0000       0.0000       0.0000     
     20      0.0000       0.0000       0.0000       0.0000       0.0000       0.0000       0.0000       0.0000       0.0000       0.0000       0.0000       0.0000     
     21      0.0000       0.0000       0.0000       0.0000       0.0000       0.0000       0.0000       0.0000       0.0000       0.0000       0.0000       0.0000     
     22      0.0000       0.0000       0.0000       0.0000       0.0000       0.0000       0.0000       0.0000       0.0000       0.0000       0.0000       0.0000     
     23      0.0000       0.0000       0.0000       0.0000       0.0000       0.0000       0.0000       0.0000       0.0000       0.0000       0.0000       0.0000     
     24      0.0000       0.0000       0.0000       0.0000       0.0000       0.0000       0.0000       0.0000       0.0000       0.0000       0.0000       0.0000     
 ----------------------------------------------------------------------------------------------------------------------------------------------------------------------




  SFR-1 BUDGET FOR ENTIRE MODEL AT END OF TIME STEP   57, STRESS PERIOD   1
  ------------------------------------------------------------------------------

     CUMULATIVE SFR-1      M       RATES FOR THIS TIME STEP      M/T
     ------------------                 ------------------------

           IN:                                      IN:
           ---                                      ---
                 GWF =           0.0000                   GWF =           0.0000
            RAINFALL =           0.0000              RAINFALL =           0.0000
         EVAPORATION =           0.0000           EVAPORATION =           0.0000
              RUNOFF =           0.0000                RUNOFF =           0.0000
          EXT-INFLOW =       24624.0000            EXT-INFLOW =          43.2000
         EXT-OUTFLOW =           0.0000           EXT-OUTFLOW =           0.0000
             STORAGE =           0.0000               STORAGE =           0.0000
            CONSTANT =           0.0000              CONSTANT =           0.0000

            TOTAL IN =       24624.0000              TOTAL IN =          43.2000

          OUT:                                     OUT:
          ----                                     ----
                 GWF =       24624.0000                   GWF =          43.2000
            RAINFALL =           0.0000              RAINFALL =           0.0000
         EVAPORATION =           0.0000           EVAPORATION =           0.0000
              RUNOFF =           0.0000                RUNOFF =           0.0000
          EXT-INFLOW =           0.0000            EXT-INFLOW =           0.0000
         EXT-OUTFLOW =           0.0000           EXT-OUTFLOW =           0.0000
             STORAGE =       2.7756E-16               STORAGE =           0.0000
            CONSTANT =           0.0000              CONSTANT =           0.0000

           TOTAL OUT =       24624.0000             TOTAL OUT =          43.2000

            IN - OUT =           0.0000              IN - OUT =           0.0000

 PERCENT DISCREPANCY =           0.00     PERCENT DISCREPANCY =           0.00



  MASS BUDGET FOR ENTIRE MODEL AT END OF TIME STEP   57, STRESS PERIOD   1
  ---------------------------------------------------------------------------------------------------

     CUMULATIVE MASS      M       RATES FOR THIS TIME STEP      M/T          PACKAGE NAME    
     ------------------                 ------------------------                     ----------------

           IN:                                      IN:
           ---                                      ---
     STORAGE-AQUEOUS =       2.1381E-13       STORAGE-AQUEOUS =       5.5582E-16     MST             
               RCH-1 =           0.0000                 RCH-1 =           0.0000     SSM             
               CHD-1 =           0.0000                 CHD-1 =           0.0000     SSM             
     FLOW-CORRECTION =       1.8124E-06       FLOW-CORRECTION =       1.6113E-08                     
                 SFT =       24624.0000                   SFT =          43.2000     SFR-1           

            TOTAL IN =       24624.0000              TOTAL IN =          43.2000

          OUT:                                     OUT:
          ----                                     ----
     STORAGE-AQUEOUS =       24623.9998       STORAGE-AQUEOUS =          43.2000     MST             
               RCH-1 =           0.0000                 RCH-1 =           0.0000     SSM             
               CHD-1 =       6.6895E-65                 CHD-1 =       4.7686E-66     SSM             
     FLOW-CORRECTION =       2.2599E-04       FLOW-CORRECTION =       7.3450E-07                     
                 SFT =           0.0000                   SFT =           0.0000     SFR-1           

           TOTAL OUT =       24624.0000             TOTAL OUT =          43.2000

            IN - OUT =       8.9768E-06              IN - OUT =       6.1051E-09

 PERCENT DISCREPANCY =           0.00     PERCENT DISCREPANCY =           0.00




         TIME SUMMARY AT END OF TIME STEP   57 IN STRESS PERIOD    1
                    SECONDS     MINUTES      HOURS       DAYS        YEARS
                    -----------------------------------------------------------
   TIME STEP LENGTH 8.64000E+05  14400.      240.00      10.000     2.73785E-02
 STRESS PERIOD TIME 4.92480E+07 8.20800E+05  13680.      570.00      1.5606    
         TOTAL TIME 4.92480E+07 8.20800E+05  13680.      570.00      1.5606    


end timestep


start timestep kper="1" kstp="58" mode="normal"


 FMI SETTING BUDGET TERMS FOR KSTP 58 AND KPER 1 TO BUDGET FILE TERMS FROM KSTP 1 AND KPER 1

 FMI SETTING HEAD FOR KSTP 58 AND KPER 1 TO BINARY FILE HEADS FROM KSTP 1 AND KPER 1

 SFR-1 SETTING BUDGET TERMS FOR KSTP 58 AND KPER 1 TO BUDGET FILE TERMS FROM KSTP 1 AND KPER 1

 SFT PACKAGE (SFR-1) FLOW RATES   PERIOD      1   STEP       58
 ----------------------------------------------------------------------------------------
   NUMBER   CELLID                    RATE       NAME                                    
 ----------------------------------------------------------------------------------------
     1      (1,1,169)             21.929568      SFTREACH1                               
     2      (1,1,170)             21.270432      SFTREACH2                               
     3      (1,1,171)             0.0000000      SFTREACH3                               
     4      (1,1,172)             0.0000000      SFTREACH4                               
     5      (1,1,173)             0.0000000      SFTREACH5                               
     6      (1,1,174)             0.0000000      SFTREACH6                               
     7      (1,1,175)             0.0000000      SFTREACH7                               
     8      (1,1,176)             0.0000000      SFTREACH8                               
     9      (1,1,177)             0.0000000      SFTREACH9                               
     10     (1,1,178)             0.0000000      SFTREACH10                              
     11     (1,1,179)             0.0000000      SFTREACH11                              
     12     (1,1,180)             0.0000000      SFTREACH12                              
     13     (1,1,181)             0.0000000      SFTREACH13                              
     14     (1,1,182)             0.0000000      SFTREACH14                              
     15     (1,1,183)             0.0000000      SFTREACH15                              
     16     (1,1,184)             0.0000000      SFTREACH16                              
     17     (1,1,185)             0.0000000      SFTREACH17                              
     18     (1,1,186)             0.0000000      SFTREACH18                              
     19     (1,1,187)             0.0000000      SFTREACH19                              
     20     (1,1,188)             0.0000000      SFTREACH20                              
     21     (1,1,189)             0.0000000      SFTREACH21                              
     22     (1,1,190)             0.0000000      SFTREACH22                              
     23     (1,1,191)             0.0000000      SFTREACH23                              
     24     (1,1,192)             0.0000000      SFTREACH24                              
 ----------------------------------------------------------------------------------------




 SFR-1 PACKAGE - SUMMARY OF FLOWS FOR EACH CONTROL VOLUME   PERIOD      1   STEP       58
 ----------------------------------------------------------------------------------------------------------------------------------------------------------------------
                                                                                                                                                             PERCENT   
   NUMBER      INFLOW      OUTFLOW        GWF        RAINFALL   EVAPORATION     RUNOFF     EXT INFLOW  EXT OUTFLOW    STORAGE      CONSTANT     IN - OUT    DIFFERENCE 
 ----------------------------------------------------------------------------------------------------------------------------------------------------------------------
     1       0.0000      -21.270      -21.930       0.0000       0.0000       0.0000       43.200       0.0000       0.0000       0.0000      -7.10543E-15 -1.64477E-14
     2       21.270       0.0000      -21.270       0.0000       0.0000       0.0000       0.0000       0.0000       0.0000       0.0000       3.55271E-15  1.67026E-14
     3       0.0000       0.0000       0.0000       0.0000       0.0000       0.0000       0.0000       0.0000       0.0000       0.0000       0.0000       0.0000     
     4       0.0000       0.0000       0.0000       0.0000       0.0000       0.0000       0.0000       0.0000       0.0000       0.0000       0.0000       0.0000     
     5       0.0000       0.0000       0.0000       0.0000       0.0000       0.0000       0.0000       0.0000       0.0000       0.0000       0.0000       0.0000     
     6       0.0000       0.0000       0.0000       0.0000       0.0000       0.0000       0.0000       0.0000       0.0000       0.0000       0.0000       0.0000     
     7       0.0000       0.0000       0.0000       0.0000       0.0000       0.0000       0.0000       0.0000       0.0000       0.0000       0.0000       0.0000     
     8       0.0000       0.0000       0.0000       0.0000       0.0000       0.0000       0.0000       0.0000       0.0000       0.0000       0.0000       0.0000     
     9       0.0000       0.0000       0.0000       0.0000       0.0000       0.0000       0.0000       0.0000       0.0000       0.0000       0.0000       0.0000     
     10      0.0000       0.0000       0.0000       0.0000       0.0000       0.0000       0.0000       0.0000       0.0000       0.0000       0.0000       0.0000     
     11      0.0000       0.0000       0.0000       0.0000       0.0000       0.0000       0.0000       0.0000       0.0000       0.0000       0.0000       0.0000     
     12      0.0000       0.0000       0.0000       0.0000       0.0000       0.0000       0.0000       0.0000       0.0000       0.0000       0.0000       0.0000     
     13      0.0000       0.0000       0.0000       0.0000       0.0000       0.0000       0.0000       0.0000       0.0000       0.0000       0.0000       0.0000     
     14      0.0000       0.0000       0.0000       0.0000       0.0000       0.0000       0.0000       0.0000       0.0000       0.0000       0.0000       0.0000     
     15      0.0000       0.0000       0.0000       0.0000       0.0000       0.0000       0.0000       0.0000       0.0000       0.0000       0.0000       0.0000     
     16      0.0000       0.0000       0.0000       0.0000       0.0000       0.0000       0.0000       0.0000       0.0000       0.0000       0.0000       0.0000     
     17      0.0000       0.0000       0.0000       0.0000       0.0000       0.0000       0.0000       0.0000       0.0000       0.0000       0.0000       0.0000     
     18      0.0000       0.0000       0.0000       0.0000       0.0000       0.0000       0.0000       0.0000       0.0000       0.0000       0.0000       0.0000     
     19      0.0000       0.0000       0.0000       0.0000       0.0000       0.0000       0.0000       0.0000       0.0000       0.0000       0.0000       0.0000     
     20      0.0000       0.0000       0.0000       0.0000       0.0000       0.0000       0.0000       0.0000       0.0000       0.0000       0.0000       0.0000     
     21      0.0000       0.0000       0.0000       0.0000       0.0000       0.0000       0.0000       0.0000       0.0000       0.0000       0.0000       0.0000     
     22      0.0000       0.0000       0.0000       0.0000       0.0000       0.0000       0.0000       0.0000       0.0000       0.0000       0.0000       0.0000     
     23      0.0000       0.0000       0.0000       0.0000       0.0000       0.0000       0.0000       0.0000       0.0000       0.0000       0.0000       0.0000     
     24      0.0000       0.0000       0.0000       0.0000       0.0000       0.0000       0.0000       0.0000       0.0000       0.0000       0.0000       0.0000     
 ----------------------------------------------------------------------------------------------------------------------------------------------------------------------




  SFR-1 BUDGET FOR ENTIRE MODEL AT END OF TIME STEP   58, STRESS PERIOD   1
  ------------------------------------------------------------------------------

     CUMULATIVE SFR-1      M       RATES FOR THIS TIME STEP      M/T
     ------------------                 ------------------------

           IN:                                      IN:
           ---                                      ---
                 GWF =           0.0000                   GWF =           0.0000
            RAINFALL =           0.0000              RAINFALL =           0.0000
         EVAPORATION =           0.0000           EVAPORATION =           0.0000
              RUNOFF =           0.0000                RUNOFF =           0.0000
          EXT-INFLOW =       25056.0000            EXT-INFLOW =          43.2000
         EXT-OUTFLOW =           0.0000           EXT-OUTFLOW =           0.0000
             STORAGE =           0.0000               STORAGE =           0.0000
            CONSTANT =           0.0000              CONSTANT =           0.0000

            TOTAL IN =       25056.0000              TOTAL IN =          43.2000

          OUT:                                     OUT:
          ----                                     ----
                 GWF =       25056.0000                   GWF =          43.2000
            RAINFALL =           0.0000              RAINFALL =           0.0000
         EVAPORATION =           0.0000           EVAPORATION =           0.0000
              RUNOFF =           0.0000                RUNOFF =           0.0000
          EXT-INFLOW =           0.0000            EXT-INFLOW =           0.0000
         EXT-OUTFLOW =           0.0000           EXT-OUTFLOW =           0.0000
             STORAGE =       2.7756E-16               STORAGE =           0.0000
            CONSTANT =           0.0000              CONSTANT =           0.0000

           TOTAL OUT =       25056.0000             TOTAL OUT =          43.2000

            IN - OUT =           0.0000              IN - OUT =           0.0000

 PERCENT DISCREPANCY =           0.00     PERCENT DISCREPANCY =           0.00



  MASS BUDGET FOR ENTIRE MODEL AT END OF TIME STEP   58, STRESS PERIOD   1
  ---------------------------------------------------------------------------------------------------

     CUMULATIVE MASS      M       RATES FOR THIS TIME STEP      M/T          PACKAGE NAME    
     ------------------                 ------------------------                     ----------------

           IN:                                      IN:
           ---                                      ---
     STORAGE-AQUEOUS =       2.1937E-13       STORAGE-AQUEOUS =       5.5582E-16     MST             
               RCH-1 =           0.0000                 RCH-1 =           0.0000     SSM             
               CHD-1 =           0.0000                 CHD-1 =           0.0000     SSM             
     FLOW-CORRECTION =       1.9918E-06       FLOW-CORRECTION =       1.7937E-08                     
                 SFT =       25056.0000                   SFT =          43.2000     SFR-1           

            TOTAL IN =       25056.0000              TOTAL IN =          43.2000

          OUT:                                     OUT:
          ----                                     ----
     STORAGE-AQUEOUS =       25055.9998       STORAGE-AQUEOUS =          43.2000     MST             
               RCH-1 =           0.0000                 RCH-1 =           0.0000     SSM             
               CHD-1 =       2.2970E-64                 CHD-1 =       1.6280E-65     SSM             
     FLOW-CORRECTION =       2.3343E-04       FLOW-CORRECTION =       7.4423E-07                     
                 SFT =           0.0000                   SFT =           0.0000     SFR-1           

           TOTAL OUT =       25056.0000             TOTAL OUT =          43.2000

            IN - OUT =       9.0288E-06              IN - OUT =       5.2055E-09

 PERCENT DISCREPANCY =           0.00     PERCENT DISCREPANCY =           0.00




         TIME SUMMARY AT END OF TIME STEP   58 IN STRESS PERIOD    1
                    SECONDS     MINUTES      HOURS       DAYS        YEARS
                    -----------------------------------------------------------
   TIME STEP LENGTH 8.64000E+05  14400.      240.00      10.000     2.73785E-02
 STRESS PERIOD TIME 5.01120E+07 8.35200E+05  13920.      580.00      1.5880    
         TOTAL TIME 5.01120E+07 8.35200E+05  13920.      580.00      1.5880    


end timestep


start timestep kper="1" kstp="59" mode="normal"


 FMI SETTING BUDGET TERMS FOR KSTP 59 AND KPER 1 TO BUDGET FILE TERMS FROM KSTP 1 AND KPER 1

 FMI SETTING HEAD FOR KSTP 59 AND KPER 1 TO BINARY FILE HEADS FROM KSTP 1 AND KPER 1

 SFR-1 SETTING BUDGET TERMS FOR KSTP 59 AND KPER 1 TO BUDGET FILE TERMS FROM KSTP 1 AND KPER 1

 SFT PACKAGE (SFR-1) FLOW RATES   PERIOD      1   STEP       59
 ----------------------------------------------------------------------------------------
   NUMBER   CELLID                    RATE       NAME                                    
 ----------------------------------------------------------------------------------------
     1      (1,1,169)             21.929568      SFTREACH1                               
     2      (1,1,170)             21.270432      SFTREACH2                               
     3      (1,1,171)             0.0000000      SFTREACH3                               
     4      (1,1,172)             0.0000000      SFTREACH4                               
     5      (1,1,173)             0.0000000      SFTREACH5                               
     6      (1,1,174)             0.0000000      SFTREACH6                               
     7      (1,1,175)             0.0000000      SFTREACH7                               
     8      (1,1,176)             0.0000000      SFTREACH8                               
     9      (1,1,177)             0.0000000      SFTREACH9                               
     10     (1,1,178)             0.0000000      SFTREACH10                              
     11     (1,1,179)             0.0000000      SFTREACH11                              
     12     (1,1,180)             0.0000000      SFTREACH12                              
     13     (1,1,181)             0.0000000      SFTREACH13                              
     14     (1,1,182)             0.0000000      SFTREACH14                              
     15     (1,1,183)             0.0000000      SFTREACH15                              
     16     (1,1,184)             0.0000000      SFTREACH16                              
     17     (1,1,185)             0.0000000      SFTREACH17                              
     18     (1,1,186)             0.0000000      SFTREACH18                              
     19     (1,1,187)             0.0000000      SFTREACH19                              
     20     (1,1,188)             0.0000000      SFTREACH20                              
     21     (1,1,189)             0.0000000      SFTREACH21                              
     22     (1,1,190)             0.0000000      SFTREACH22                              
     23     (1,1,191)             0.0000000      SFTREACH23                              
     24     (1,1,192)             0.0000000      SFTREACH24                              
 ----------------------------------------------------------------------------------------




 SFR-1 PACKAGE - SUMMARY OF FLOWS FOR EACH CONTROL VOLUME   PERIOD      1   STEP       59
 ----------------------------------------------------------------------------------------------------------------------------------------------------------------------
                                                                                                                                                             PERCENT   
   NUMBER      INFLOW      OUTFLOW        GWF        RAINFALL   EVAPORATION     RUNOFF     EXT INFLOW  EXT OUTFLOW    STORAGE      CONSTANT     IN - OUT    DIFFERENCE 
 ----------------------------------------------------------------------------------------------------------------------------------------------------------------------
     1       0.0000      -21.270      -21.930       0.0000       0.0000       0.0000       43.200       0.0000       0.0000       0.0000      -7.10543E-15 -1.64477E-14
     2       21.270       0.0000      -21.270       0.0000       0.0000       0.0000       0.0000       0.0000       0.0000       0.0000       3.55271E-15  1.67026E-14
     3       0.0000       0.0000       0.0000       0.0000       0.0000       0.0000       0.0000       0.0000       0.0000       0.0000       0.0000       0.0000     
     4       0.0000       0.0000       0.0000       0.0000       0.0000       0.0000       0.0000       0.0000       0.0000       0.0000       0.0000       0.0000     
     5       0.0000       0.0000       0.0000       0.0000       0.0000       0.0000       0.0000       0.0000       0.0000       0.0000       0.0000       0.0000     
     6       0.0000       0.0000       0.0000       0.0000       0.0000       0.0000       0.0000       0.0000       0.0000       0.0000       0.0000       0.0000     
     7       0.0000       0.0000       0.0000       0.0000       0.0000       0.0000       0.0000       0.0000       0.0000       0.0000       0.0000       0.0000     
     8       0.0000       0.0000       0.0000       0.0000       0.0000       0.0000       0.0000       0.0000       0.0000       0.0000       0.0000       0.0000     
     9       0.0000       0.0000       0.0000       0.0000       0.0000       0.0000       0.0000       0.0000       0.0000       0.0000       0.0000       0.0000     
     10      0.0000       0.0000       0.0000       0.0000       0.0000       0.0000       0.0000       0.0000       0.0000       0.0000       0.0000       0.0000     
     11      0.0000       0.0000       0.0000       0.0000       0.0000       0.0000       0.0000       0.0000       0.0000       0.0000       0.0000       0.0000     
     12      0.0000       0.0000       0.0000       0.0000       0.0000       0.0000       0.0000       0.0000       0.0000       0.0000       0.0000       0.0000     
     13      0.0000       0.0000       0.0000       0.0000       0.0000       0.0000       0.0000       0.0000       0.0000       0.0000       0.0000       0.0000     
     14      0.0000       0.0000       0.0000       0.0000       0.0000       0.0000       0.0000       0.0000       0.0000       0.0000       0.0000       0.0000     
     15      0.0000       0.0000       0.0000       0.0000       0.0000       0.0000       0.0000       0.0000       0.0000       0.0000       0.0000       0.0000     
     16      0.0000       0.0000       0.0000       0.0000       0.0000       0.0000       0.0000       0.0000       0.0000       0.0000       0.0000       0.0000     
     17      0.0000       0.0000       0.0000       0.0000       0.0000       0.0000       0.0000       0.0000       0.0000       0.0000       0.0000       0.0000     
     18      0.0000       0.0000       0.0000       0.0000       0.0000       0.0000       0.0000       0.0000       0.0000       0.0000       0.0000       0.0000     
     19      0.0000       0.0000       0.0000       0.0000       0.0000       0.0000       0.0000       0.0000       0.0000       0.0000       0.0000       0.0000     
     20      0.0000       0.0000       0.0000       0.0000       0.0000       0.0000       0.0000       0.0000       0.0000       0.0000       0.0000       0.0000     
     21      0.0000       0.0000       0.0000       0.0000       0.0000       0.0000       0.0000       0.0000       0.0000       0.0000       0.0000       0.0000     
     22      0.0000       0.0000       0.0000       0.0000       0.0000       0.0000       0.0000       0.0000       0.0000       0.0000       0.0000       0.0000     
     23      0.0000       0.0000       0.0000       0.0000       0.0000       0.0000       0.0000       0.0000       0.0000       0.0000       0.0000       0.0000     
     24      0.0000       0.0000       0.0000       0.0000       0.0000       0.0000       0.0000       0.0000       0.0000       0.0000       0.0000       0.0000     
 ----------------------------------------------------------------------------------------------------------------------------------------------------------------------




  SFR-1 BUDGET FOR ENTIRE MODEL AT END OF TIME STEP   59, STRESS PERIOD   1
  ------------------------------------------------------------------------------

     CUMULATIVE SFR-1      M       RATES FOR THIS TIME STEP      M/T
     ------------------                 ------------------------

           IN:                                      IN:
           ---                                      ---
                 GWF =           0.0000                   GWF =           0.0000
            RAINFALL =           0.0000              RAINFALL =           0.0000
         EVAPORATION =           0.0000           EVAPORATION =           0.0000
              RUNOFF =           0.0000                RUNOFF =           0.0000
          EXT-INFLOW =       25488.0000            EXT-INFLOW =          43.2000
         EXT-OUTFLOW =           0.0000           EXT-OUTFLOW =           0.0000
             STORAGE =           0.0000               STORAGE =           0.0000
            CONSTANT =           0.0000              CONSTANT =           0.0000

            TOTAL IN =       25488.0000              TOTAL IN =          43.2000

          OUT:                                     OUT:
          ----                                     ----
                 GWF =       25488.0000                   GWF =          43.2000
            RAINFALL =           0.0000              RAINFALL =           0.0000
         EVAPORATION =           0.0000           EVAPORATION =           0.0000
              RUNOFF =           0.0000                RUNOFF =           0.0000
          EXT-INFLOW =           0.0000            EXT-INFLOW =           0.0000
         EXT-OUTFLOW =           0.0000           EXT-OUTFLOW =           0.0000
             STORAGE =       2.7756E-16               STORAGE =           0.0000
            CONSTANT =           0.0000              CONSTANT =           0.0000

           TOTAL OUT =       25488.0000             TOTAL OUT =          43.2000

            IN - OUT =           0.0000              IN - OUT =           0.0000

 PERCENT DISCREPANCY =           0.00     PERCENT DISCREPANCY =           0.00



  MASS BUDGET FOR ENTIRE MODEL AT END OF TIME STEP   59, STRESS PERIOD   1
  ---------------------------------------------------------------------------------------------------

     CUMULATIVE MASS      M       RATES FOR THIS TIME STEP      M/T          PACKAGE NAME    
     ------------------                 ------------------------                     ----------------

           IN:                                      IN:
           ---                                      ---
     STORAGE-AQUEOUS =       2.2493E-13       STORAGE-AQUEOUS =       5.5582E-16     MST             
               RCH-1 =           0.0000                 RCH-1 =           0.0000     SSM             
               CHD-1 =           0.0000                 CHD-1 =           0.0000     SSM             
     FLOW-CORRECTION =       2.1913E-06       FLOW-CORRECTION =       1.9949E-08                     
                 SFT =       25488.0000                   SFT =          43.2000     SFR-1           

            TOTAL IN =       25488.0000              TOTAL IN =          43.2000

          OUT:                                     OUT:
          ----                                     ----
     STORAGE-AQUEOUS =       25487.9998       STORAGE-AQUEOUS =          43.2000     MST             
               RCH-1 =           0.0000                 RCH-1 =           0.0000     SSM             
               CHD-1 =       7.7791E-64                 CHD-1 =       5.4821E-65     SSM             
     FLOW-CORRECTION =       2.4097E-04       FLOW-CORRECTION =       7.5389E-07                     
                 SFT =           0.0000                   SFT =           0.0000     SFR-1           

           TOTAL OUT =       25488.0000             TOTAL OUT =          43.2000

            IN - OUT =       9.0723E-06              IN - OUT =       4.3490E-09

 PERCENT DISCREPANCY =           0.00     PERCENT DISCREPANCY =           0.00




         TIME SUMMARY AT END OF TIME STEP   59 IN STRESS PERIOD    1
                    SECONDS     MINUTES      HOURS       DAYS        YEARS
                    -----------------------------------------------------------
   TIME STEP LENGTH 8.64000E+05  14400.      240.00      10.000     2.73785E-02
 STRESS PERIOD TIME 5.09760E+07 8.49600E+05  14160.      590.00      1.6153    
         TOTAL TIME 5.09760E+07 8.49600E+05  14160.      590.00      1.6153    


end timestep


start timestep kper="1" kstp="60" mode="normal"


 FMI SETTING BUDGET TERMS FOR KSTP 60 AND KPER 1 TO BUDGET FILE TERMS FROM KSTP 1 AND KPER 1

 FMI SETTING HEAD FOR KSTP 60 AND KPER 1 TO BINARY FILE HEADS FROM KSTP 1 AND KPER 1

 SFR-1 SETTING BUDGET TERMS FOR KSTP 60 AND KPER 1 TO BUDGET FILE TERMS FROM KSTP 1 AND KPER 1

 SFT PACKAGE (SFR-1) FLOW RATES   PERIOD      1   STEP       60
 ----------------------------------------------------------------------------------------
   NUMBER   CELLID                    RATE       NAME                                    
 ----------------------------------------------------------------------------------------
     1      (1,1,169)             21.929568      SFTREACH1                               
     2      (1,1,170)             21.270432      SFTREACH2                               
     3      (1,1,171)             0.0000000      SFTREACH3                               
     4      (1,1,172)             0.0000000      SFTREACH4                               
     5      (1,1,173)             0.0000000      SFTREACH5                               
     6      (1,1,174)             0.0000000      SFTREACH6                               
     7      (1,1,175)             0.0000000      SFTREACH7                               
     8      (1,1,176)             0.0000000      SFTREACH8                               
     9      (1,1,177)             0.0000000      SFTREACH9                               
     10     (1,1,178)             0.0000000      SFTREACH10                              
     11     (1,1,179)             0.0000000      SFTREACH11                              
     12     (1,1,180)             0.0000000      SFTREACH12                              
     13     (1,1,181)             0.0000000      SFTREACH13                              
     14     (1,1,182)             0.0000000      SFTREACH14                              
     15     (1,1,183)             0.0000000      SFTREACH15                              
     16     (1,1,184)             0.0000000      SFTREACH16                              
     17     (1,1,185)             0.0000000      SFTREACH17                              
     18     (1,1,186)             0.0000000      SFTREACH18                              
     19     (1,1,187)             0.0000000      SFTREACH19                              
     20     (1,1,188)             0.0000000      SFTREACH20                              
     21     (1,1,189)             0.0000000      SFTREACH21                              
     22     (1,1,190)             0.0000000      SFTREACH22                              
     23     (1,1,191)             0.0000000      SFTREACH23                              
     24     (1,1,192)             0.0000000      SFTREACH24                              
 ----------------------------------------------------------------------------------------




 SFR-1 PACKAGE - SUMMARY OF FLOWS FOR EACH CONTROL VOLUME   PERIOD      1   STEP       60
 ----------------------------------------------------------------------------------------------------------------------------------------------------------------------
                                                                                                                                                             PERCENT   
   NUMBER      INFLOW      OUTFLOW        GWF        RAINFALL   EVAPORATION     RUNOFF     EXT INFLOW  EXT OUTFLOW    STORAGE      CONSTANT     IN - OUT    DIFFERENCE 
 ----------------------------------------------------------------------------------------------------------------------------------------------------------------------
     1       0.0000      -21.270      -21.930       0.0000       0.0000       0.0000       43.200       0.0000       0.0000       0.0000      -7.10543E-15 -1.64477E-14
     2       21.270       0.0000      -21.270       0.0000       0.0000       0.0000       0.0000       0.0000       0.0000       0.0000       3.55271E-15  1.67026E-14
     3       0.0000       0.0000       0.0000       0.0000       0.0000       0.0000       0.0000       0.0000       0.0000       0.0000       0.0000       0.0000     
     4       0.0000       0.0000       0.0000       0.0000       0.0000       0.0000       0.0000       0.0000       0.0000       0.0000       0.0000       0.0000     
     5       0.0000       0.0000       0.0000       0.0000       0.0000       0.0000       0.0000       0.0000       0.0000       0.0000       0.0000       0.0000     
     6       0.0000       0.0000       0.0000       0.0000       0.0000       0.0000       0.0000       0.0000       0.0000       0.0000       0.0000       0.0000     
     7       0.0000       0.0000       0.0000       0.0000       0.0000       0.0000       0.0000       0.0000       0.0000       0.0000       0.0000       0.0000     
     8       0.0000       0.0000       0.0000       0.0000       0.0000       0.0000       0.0000       0.0000       0.0000       0.0000       0.0000       0.0000     
     9       0.0000       0.0000       0.0000       0.0000       0.0000       0.0000       0.0000       0.0000       0.0000       0.0000       0.0000       0.0000     
     10      0.0000       0.0000       0.0000       0.0000       0.0000       0.0000       0.0000       0.0000       0.0000       0.0000       0.0000       0.0000     
     11      0.0000       0.0000       0.0000       0.0000       0.0000       0.0000       0.0000       0.0000       0.0000       0.0000       0.0000       0.0000     
     12      0.0000       0.0000       0.0000       0.0000       0.0000       0.0000       0.0000       0.0000       0.0000       0.0000       0.0000       0.0000     
     13      0.0000       0.0000       0.0000       0.0000       0.0000       0.0000       0.0000       0.0000       0.0000       0.0000       0.0000       0.0000     
     14      0.0000       0.0000       0.0000       0.0000       0.0000       0.0000       0.0000       0.0000       0.0000       0.0000       0.0000       0.0000     
     15      0.0000       0.0000       0.0000       0.0000       0.0000       0.0000       0.0000       0.0000       0.0000       0.0000       0.0000       0.0000     
     16      0.0000       0.0000       0.0000       0.0000       0.0000       0.0000       0.0000       0.0000       0.0000       0.0000       0.0000       0.0000     
     17      0.0000       0.0000       0.0000       0.0000       0.0000       0.0000       0.0000       0.0000       0.0000       0.0000       0.0000       0.0000     
     18      0.0000       0.0000       0.0000       0.0000       0.0000       0.0000       0.0000       0.0000       0.0000       0.0000       0.0000       0.0000     
     19      0.0000       0.0000       0.0000       0.0000       0.0000       0.0000       0.0000       0.0000       0.0000       0.0000       0.0000       0.0000     
     20      0.0000       0.0000       0.0000       0.0000       0.0000       0.0000       0.0000       0.0000       0.0000       0.0000       0.0000       0.0000     
     21      0.0000       0.0000       0.0000       0.0000       0.0000       0.0000       0.0000       0.0000       0.0000       0.0000       0.0000       0.0000     
     22      0.0000       0.0000       0.0000       0.0000       0.0000       0.0000       0.0000       0.0000       0.0000       0.0000       0.0000       0.0000     
     23      0.0000       0.0000       0.0000       0.0000       0.0000       0.0000       0.0000       0.0000       0.0000       0.0000       0.0000       0.0000     
     24      0.0000       0.0000       0.0000       0.0000       0.0000       0.0000       0.0000       0.0000       0.0000       0.0000       0.0000       0.0000     
 ----------------------------------------------------------------------------------------------------------------------------------------------------------------------



 CONCENTRATION WILL BE SAVED ON UNIT 1024 AT END OF TIME STEP   60, STRESS PERIOD    1


  SFR-1 BUDGET FOR ENTIRE MODEL AT END OF TIME STEP   60, STRESS PERIOD   1
  ------------------------------------------------------------------------------

     CUMULATIVE SFR-1      M       RATES FOR THIS TIME STEP      M/T
     ------------------                 ------------------------

           IN:                                      IN:
           ---                                      ---
                 GWF =           0.0000                   GWF =           0.0000
            RAINFALL =           0.0000              RAINFALL =           0.0000
         EVAPORATION =           0.0000           EVAPORATION =           0.0000
              RUNOFF =           0.0000                RUNOFF =           0.0000
          EXT-INFLOW =       25920.0000            EXT-INFLOW =          43.2000
         EXT-OUTFLOW =           0.0000           EXT-OUTFLOW =           0.0000
             STORAGE =           0.0000               STORAGE =           0.0000
            CONSTANT =           0.0000              CONSTANT =           0.0000

            TOTAL IN =       25920.0000              TOTAL IN =          43.2000

          OUT:                                     OUT:
          ----                                     ----
                 GWF =       25920.0000                   GWF =          43.2000
            RAINFALL =           0.0000              RAINFALL =           0.0000
         EVAPORATION =           0.0000           EVAPORATION =           0.0000
              RUNOFF =           0.0000                RUNOFF =           0.0000
          EXT-INFLOW =           0.0000            EXT-INFLOW =           0.0000
         EXT-OUTFLOW =           0.0000           EXT-OUTFLOW =           0.0000
             STORAGE =       2.7756E-16               STORAGE =           0.0000
            CONSTANT =           0.0000              CONSTANT =           0.0000

           TOTAL OUT =       25920.0000             TOTAL OUT =          43.2000

            IN - OUT =           0.0000              IN - OUT =           0.0000

 PERCENT DISCREPANCY =           0.00     PERCENT DISCREPANCY =           0.00



  MASS BUDGET FOR ENTIRE MODEL AT END OF TIME STEP   60, STRESS PERIOD   1
  ---------------------------------------------------------------------------------------------------

     CUMULATIVE MASS      M       RATES FOR THIS TIME STEP      M/T          PACKAGE NAME    
     ------------------                 ------------------------                     ----------------

           IN:                                      IN:
           ---                                      ---
     STORAGE-AQUEOUS =       2.3049E-13       STORAGE-AQUEOUS =       5.5582E-16     MST             
               RCH-1 =           0.0000                 RCH-1 =           0.0000     SSM             
               CHD-1 =           0.0000                 CHD-1 =           0.0000     SSM             
     FLOW-CORRECTION =       2.4129E-06       FLOW-CORRECTION =       2.2163E-08                     
                 SFT =       25920.0000                   SFT =          43.2000     SFR-1           

            TOTAL IN =       25920.0000              TOTAL IN =          43.2000

          OUT:                                     OUT:
          ----                                     ----
     STORAGE-AQUEOUS =       25919.9997       STORAGE-AQUEOUS =          43.2000     MST             
               RCH-1 =           0.0000                 RCH-1 =           0.0000     SSM             
               CHD-1 =       2.5991E-63                 CHD-1 =       1.8212E-64     SSM             
     FLOW-CORRECTION =       2.4861E-04       FLOW-CORRECTION =       7.6350E-07                     
                 SFT =           0.0000                   SFT =           0.0000     SFR-1           

           TOTAL OUT =       25920.0000             TOTAL OUT =          43.2000

            IN - OUT =       9.1079E-06              IN - OUT =       3.5595E-09

 PERCENT DISCREPANCY =           0.00     PERCENT DISCREPANCY =           0.00




         TIME SUMMARY AT END OF TIME STEP   60 IN STRESS PERIOD    1
                    SECONDS     MINUTES      HOURS       DAYS        YEARS
                    -----------------------------------------------------------
   TIME STEP LENGTH 8.64000E+05  14400.      240.00      10.000     2.73785E-02
 STRESS PERIOD TIME 5.18400E+07 8.64000E+05  14400.      600.00      1.6427    
         TOTAL TIME 5.18400E+07 8.64000E+05  14400.      600.00      1.6427    


end timestep


start timestep kper="1" kstp="61" mode="normal"


 FMI SETTING BUDGET TERMS FOR KSTP 61 AND KPER 1 TO BUDGET FILE TERMS FROM KSTP 1 AND KPER 1

 FMI SETTING HEAD FOR KSTP 61 AND KPER 1 TO BINARY FILE HEADS FROM KSTP 1 AND KPER 1

 SFR-1 SETTING BUDGET TERMS FOR KSTP 61 AND KPER 1 TO BUDGET FILE TERMS FROM KSTP 1 AND KPER 1

 SFT PACKAGE (SFR-1) FLOW RATES   PERIOD      1   STEP       61
 ----------------------------------------------------------------------------------------
   NUMBER   CELLID                    RATE       NAME                                    
 ----------------------------------------------------------------------------------------
     1      (1,1,169)             21.929568      SFTREACH1                               
     2      (1,1,170)             21.270432      SFTREACH2                               
     3      (1,1,171)             0.0000000      SFTREACH3                               
     4      (1,1,172)             0.0000000      SFTREACH4                               
     5      (1,1,173)             0.0000000      SFTREACH5                               
     6      (1,1,174)             0.0000000      SFTREACH6                               
     7      (1,1,175)             0.0000000      SFTREACH7                               
     8      (1,1,176)             0.0000000      SFTREACH8                               
     9      (1,1,177)             0.0000000      SFTREACH9                               
     10     (1,1,178)             0.0000000      SFTREACH10                              
     11     (1,1,179)             0.0000000      SFTREACH11                              
     12     (1,1,180)             0.0000000      SFTREACH12                              
     13     (1,1,181)             0.0000000      SFTREACH13                              
     14     (1,1,182)             0.0000000      SFTREACH14                              
     15     (1,1,183)             0.0000000      SFTREACH15                              
     16     (1,1,184)             0.0000000      SFTREACH16                              
     17     (1,1,185)             0.0000000      SFTREACH17                              
     18     (1,1,186)             0.0000000      SFTREACH18                              
     19     (1,1,187)             0.0000000      SFTREACH19                              
     20     (1,1,188)             0.0000000      SFTREACH20                              
     21     (1,1,189)             0.0000000      SFTREACH21                              
     22     (1,1,190)             0.0000000      SFTREACH22                              
     23     (1,1,191)             0.0000000      SFTREACH23                              
     24     (1,1,192)             0.0000000      SFTREACH24                              
 ----------------------------------------------------------------------------------------




 SFR-1 PACKAGE - SUMMARY OF FLOWS FOR EACH CONTROL VOLUME   PERIOD      1   STEP       61
 ----------------------------------------------------------------------------------------------------------------------------------------------------------------------
                                                                                                                                                             PERCENT   
   NUMBER      INFLOW      OUTFLOW        GWF        RAINFALL   EVAPORATION     RUNOFF     EXT INFLOW  EXT OUTFLOW    STORAGE      CONSTANT     IN - OUT    DIFFERENCE 
 ----------------------------------------------------------------------------------------------------------------------------------------------------------------------
     1       0.0000      -21.270      -21.930       0.0000       0.0000       0.0000       43.200       0.0000       0.0000       0.0000      -7.10543E-15 -1.64477E-14
     2       21.270       0.0000      -21.270       0.0000       0.0000       0.0000       0.0000       0.0000       0.0000       0.0000       3.55271E-15  1.67026E-14
     3       0.0000       0.0000       0.0000       0.0000       0.0000       0.0000       0.0000       0.0000       0.0000       0.0000       0.0000       0.0000     
     4       0.0000       0.0000       0.0000       0.0000       0.0000       0.0000       0.0000       0.0000       0.0000       0.0000       0.0000       0.0000     
     5       0.0000       0.0000       0.0000       0.0000       0.0000       0.0000       0.0000       0.0000       0.0000       0.0000       0.0000       0.0000     
     6       0.0000       0.0000       0.0000       0.0000       0.0000       0.0000       0.0000       0.0000       0.0000       0.0000       0.0000       0.0000     
     7       0.0000       0.0000       0.0000       0.0000       0.0000       0.0000       0.0000       0.0000       0.0000       0.0000       0.0000       0.0000     
     8       0.0000       0.0000       0.0000       0.0000       0.0000       0.0000       0.0000       0.0000       0.0000       0.0000       0.0000       0.0000     
     9       0.0000       0.0000       0.0000       0.0000       0.0000       0.0000       0.0000       0.0000       0.0000       0.0000       0.0000       0.0000     
     10      0.0000       0.0000       0.0000       0.0000       0.0000       0.0000       0.0000       0.0000       0.0000       0.0000       0.0000       0.0000     
     11      0.0000       0.0000       0.0000       0.0000       0.0000       0.0000       0.0000       0.0000       0.0000       0.0000       0.0000       0.0000     
     12      0.0000       0.0000       0.0000       0.0000       0.0000       0.0000       0.0000       0.0000       0.0000       0.0000       0.0000       0.0000     
     13      0.0000       0.0000       0.0000       0.0000       0.0000       0.0000       0.0000       0.0000       0.0000       0.0000       0.0000       0.0000     
     14      0.0000       0.0000       0.0000       0.0000       0.0000       0.0000       0.0000       0.0000       0.0000       0.0000       0.0000       0.0000     
     15      0.0000       0.0000       0.0000       0.0000       0.0000       0.0000       0.0000       0.0000       0.0000       0.0000       0.0000       0.0000     
     16      0.0000       0.0000       0.0000       0.0000       0.0000       0.0000       0.0000       0.0000       0.0000       0.0000       0.0000       0.0000     
     17      0.0000       0.0000       0.0000       0.0000       0.0000       0.0000       0.0000       0.0000       0.0000       0.0000       0.0000       0.0000     
     18      0.0000       0.0000       0.0000       0.0000       0.0000       0.0000       0.0000       0.0000       0.0000       0.0000       0.0000       0.0000     
     19      0.0000       0.0000       0.0000       0.0000       0.0000       0.0000       0.0000       0.0000       0.0000       0.0000       0.0000       0.0000     
     20      0.0000       0.0000       0.0000       0.0000       0.0000       0.0000       0.0000       0.0000       0.0000       0.0000       0.0000       0.0000     
     21      0.0000       0.0000       0.0000       0.0000       0.0000       0.0000       0.0000       0.0000       0.0000       0.0000       0.0000       0.0000     
     22      0.0000       0.0000       0.0000       0.0000       0.0000       0.0000       0.0000       0.0000       0.0000       0.0000       0.0000       0.0000     
     23      0.0000       0.0000       0.0000       0.0000       0.0000       0.0000       0.0000       0.0000       0.0000       0.0000       0.0000       0.0000     
     24      0.0000       0.0000       0.0000       0.0000       0.0000       0.0000       0.0000       0.0000       0.0000       0.0000       0.0000       0.0000     
 ----------------------------------------------------------------------------------------------------------------------------------------------------------------------




  SFR-1 BUDGET FOR ENTIRE MODEL AT END OF TIME STEP   61, STRESS PERIOD   1
  ------------------------------------------------------------------------------

     CUMULATIVE SFR-1      M       RATES FOR THIS TIME STEP      M/T
     ------------------                 ------------------------

           IN:                                      IN:
           ---                                      ---
                 GWF =           0.0000                   GWF =           0.0000
            RAINFALL =           0.0000              RAINFALL =           0.0000
         EVAPORATION =           0.0000           EVAPORATION =           0.0000
              RUNOFF =           0.0000                RUNOFF =           0.0000
          EXT-INFLOW =       26352.0000            EXT-INFLOW =          43.2000
         EXT-OUTFLOW =           0.0000           EXT-OUTFLOW =           0.0000
             STORAGE =           0.0000               STORAGE =           0.0000
            CONSTANT =           0.0000              CONSTANT =           0.0000

            TOTAL IN =       26352.0000              TOTAL IN =          43.2000

          OUT:                                     OUT:
          ----                                     ----
                 GWF =       26352.0000                   GWF =          43.2000
            RAINFALL =           0.0000              RAINFALL =           0.0000
         EVAPORATION =           0.0000           EVAPORATION =           0.0000
              RUNOFF =           0.0000                RUNOFF =           0.0000
          EXT-INFLOW =           0.0000            EXT-INFLOW =           0.0000
         EXT-OUTFLOW =           0.0000           EXT-OUTFLOW =           0.0000
             STORAGE =       2.7756E-16               STORAGE =           0.0000
            CONSTANT =           0.0000              CONSTANT =           0.0000

           TOTAL OUT =       26352.0000             TOTAL OUT =          43.2000

            IN - OUT =           0.0000              IN - OUT =           0.0000

 PERCENT DISCREPANCY =           0.00     PERCENT DISCREPANCY =           0.00



  MASS BUDGET FOR ENTIRE MODEL AT END OF TIME STEP   61, STRESS PERIOD   1
  ---------------------------------------------------------------------------------------------------

     CUMULATIVE MASS      M       RATES FOR THIS TIME STEP      M/T          PACKAGE NAME    
     ------------------                 ------------------------                     ----------------

           IN:                                      IN:
           ---                                      ---
     STORAGE-AQUEOUS =       2.3605E-13       STORAGE-AQUEOUS =       5.5582E-16     MST             
               RCH-1 =           0.0000                 RCH-1 =           0.0000     SSM             
               CHD-1 =           0.0000                 CHD-1 =           0.0000     SSM             
     FLOW-CORRECTION =       2.6588E-06       FLOW-CORRECTION =       2.4596E-08                     
                 SFT =       26352.0000                   SFT =          43.2000     SFR-1           

            TOTAL IN =       26352.0000              TOTAL IN =          43.2000

          OUT:                                     OUT:
          ----                                     ----
     STORAGE-AQUEOUS =       26351.9997       STORAGE-AQUEOUS =          43.2000     MST             
               RCH-1 =           0.0000                 RCH-1 =           0.0000     SSM             
               CHD-1 =       8.5698E-63                 CHD-1 =       5.9707E-64     SSM             
     FLOW-CORRECTION =       2.5634E-04       FLOW-CORRECTION =       7.7306E-07                     
                 SFT =           0.0000                   SFT =           0.0000     SFR-1           

           TOTAL OUT =       26352.0000             TOTAL OUT =          43.2000

            IN - OUT =       9.1200E-06              IN - OUT =       1.2064E-09

 PERCENT DISCREPANCY =           0.00     PERCENT DISCREPANCY =           0.00




         TIME SUMMARY AT END OF TIME STEP   61 IN STRESS PERIOD    1
                    SECONDS     MINUTES      HOURS       DAYS        YEARS
                    -----------------------------------------------------------
   TIME STEP LENGTH 8.64000E+05  14400.      240.00      10.000     2.73785E-02
 STRESS PERIOD TIME 5.27040E+07 8.78400E+05  14640.      610.00      1.6701    
         TOTAL TIME 5.27040E+07 8.78400E+05  14640.      610.00      1.6701    


end timestep


start timestep kper="1" kstp="62" mode="normal"


 FMI SETTING BUDGET TERMS FOR KSTP 62 AND KPER 1 TO BUDGET FILE TERMS FROM KSTP 1 AND KPER 1

 FMI SETTING HEAD FOR KSTP 62 AND KPER 1 TO BINARY FILE HEADS FROM KSTP 1 AND KPER 1

 SFR-1 SETTING BUDGET TERMS FOR KSTP 62 AND KPER 1 TO BUDGET FILE TERMS FROM KSTP 1 AND KPER 1

 SFT PACKAGE (SFR-1) FLOW RATES   PERIOD      1   STEP       62
 ----------------------------------------------------------------------------------------
   NUMBER   CELLID                    RATE       NAME                                    
 ----------------------------------------------------------------------------------------
     1      (1,1,169)             21.929568      SFTREACH1                               
     2      (1,1,170)             21.270432      SFTREACH2                               
     3      (1,1,171)             0.0000000      SFTREACH3                               
     4      (1,1,172)             0.0000000      SFTREACH4                               
     5      (1,1,173)             0.0000000      SFTREACH5                               
     6      (1,1,174)             0.0000000      SFTREACH6                               
     7      (1,1,175)             0.0000000      SFTREACH7                               
     8      (1,1,176)             0.0000000      SFTREACH8                               
     9      (1,1,177)             0.0000000      SFTREACH9                               
     10     (1,1,178)             0.0000000      SFTREACH10                              
     11     (1,1,179)             0.0000000      SFTREACH11                              
     12     (1,1,180)             0.0000000      SFTREACH12                              
     13     (1,1,181)             0.0000000      SFTREACH13                              
     14     (1,1,182)             0.0000000      SFTREACH14                              
     15     (1,1,183)             0.0000000      SFTREACH15                              
     16     (1,1,184)             0.0000000      SFTREACH16                              
     17     (1,1,185)             0.0000000      SFTREACH17                              
     18     (1,1,186)             0.0000000      SFTREACH18                              
     19     (1,1,187)             0.0000000      SFTREACH19                              
     20     (1,1,188)             0.0000000      SFTREACH20                              
     21     (1,1,189)             0.0000000      SFTREACH21                              
     22     (1,1,190)             0.0000000      SFTREACH22                              
     23     (1,1,191)             0.0000000      SFTREACH23                              
     24     (1,1,192)             0.0000000      SFTREACH24                              
 ----------------------------------------------------------------------------------------




 SFR-1 PACKAGE - SUMMARY OF FLOWS FOR EACH CONTROL VOLUME   PERIOD      1   STEP       62
 ----------------------------------------------------------------------------------------------------------------------------------------------------------------------
                                                                                                                                                             PERCENT   
   NUMBER      INFLOW      OUTFLOW        GWF        RAINFALL   EVAPORATION     RUNOFF     EXT INFLOW  EXT OUTFLOW    STORAGE      CONSTANT     IN - OUT    DIFFERENCE 
 ----------------------------------------------------------------------------------------------------------------------------------------------------------------------
     1       0.0000      -21.270      -21.930       0.0000       0.0000       0.0000       43.200       0.0000       0.0000       0.0000      -7.10543E-15 -1.64477E-14
     2       21.270       0.0000      -21.270       0.0000       0.0000       0.0000       0.0000       0.0000       0.0000       0.0000       3.55271E-15  1.67026E-14
     3       0.0000       0.0000       0.0000       0.0000       0.0000       0.0000       0.0000       0.0000       0.0000       0.0000       0.0000       0.0000     
     4       0.0000       0.0000       0.0000       0.0000       0.0000       0.0000       0.0000       0.0000       0.0000       0.0000       0.0000       0.0000     
     5       0.0000       0.0000       0.0000       0.0000       0.0000       0.0000       0.0000       0.0000       0.0000       0.0000       0.0000       0.0000     
     6       0.0000       0.0000       0.0000       0.0000       0.0000       0.0000       0.0000       0.0000       0.0000       0.0000       0.0000       0.0000     
     7       0.0000       0.0000       0.0000       0.0000       0.0000       0.0000       0.0000       0.0000       0.0000       0.0000       0.0000       0.0000     
     8       0.0000       0.0000       0.0000       0.0000       0.0000       0.0000       0.0000       0.0000       0.0000       0.0000       0.0000       0.0000     
     9       0.0000       0.0000       0.0000       0.0000       0.0000       0.0000       0.0000       0.0000       0.0000       0.0000       0.0000       0.0000     
     10      0.0000       0.0000       0.0000       0.0000       0.0000       0.0000       0.0000       0.0000       0.0000       0.0000       0.0000       0.0000     
     11      0.0000       0.0000       0.0000       0.0000       0.0000       0.0000       0.0000       0.0000       0.0000       0.0000       0.0000       0.0000     
     12      0.0000       0.0000       0.0000       0.0000       0.0000       0.0000       0.0000       0.0000       0.0000       0.0000       0.0000       0.0000     
     13      0.0000       0.0000       0.0000       0.0000       0.0000       0.0000       0.0000       0.0000       0.0000       0.0000       0.0000       0.0000     
     14      0.0000       0.0000       0.0000       0.0000       0.0000       0.0000       0.0000       0.0000       0.0000       0.0000       0.0000       0.0000     
     15      0.0000       0.0000       0.0000       0.0000       0.0000       0.0000       0.0000       0.0000       0.0000       0.0000       0.0000       0.0000     
     16      0.0000       0.0000       0.0000       0.0000       0.0000       0.0000       0.0000       0.0000       0.0000       0.0000       0.0000       0.0000     
     17      0.0000       0.0000       0.0000       0.0000       0.0000       0.0000       0.0000       0.0000       0.0000       0.0000       0.0000       0.0000     
     18      0.0000       0.0000       0.0000       0.0000       0.0000       0.0000       0.0000       0.0000       0.0000       0.0000       0.0000       0.0000     
     19      0.0000       0.0000       0.0000       0.0000       0.0000       0.0000       0.0000       0.0000       0.0000       0.0000       0.0000       0.0000     
     20      0.0000       0.0000       0.0000       0.0000       0.0000       0.0000       0.0000       0.0000       0.0000       0.0000       0.0000       0.0000     
     21      0.0000       0.0000       0.0000       0.0000       0.0000       0.0000       0.0000       0.0000       0.0000       0.0000       0.0000       0.0000     
     22      0.0000       0.0000       0.0000       0.0000       0.0000       0.0000       0.0000       0.0000       0.0000       0.0000       0.0000       0.0000     
     23      0.0000       0.0000       0.0000       0.0000       0.0000       0.0000       0.0000       0.0000       0.0000       0.0000       0.0000       0.0000     
     24      0.0000       0.0000       0.0000       0.0000       0.0000       0.0000       0.0000       0.0000       0.0000       0.0000       0.0000       0.0000     
 ----------------------------------------------------------------------------------------------------------------------------------------------------------------------




  SFR-1 BUDGET FOR ENTIRE MODEL AT END OF TIME STEP   62, STRESS PERIOD   1
  ------------------------------------------------------------------------------

     CUMULATIVE SFR-1      M       RATES FOR THIS TIME STEP      M/T
     ------------------                 ------------------------

           IN:                                      IN:
           ---                                      ---
                 GWF =           0.0000                   GWF =           0.0000
            RAINFALL =           0.0000              RAINFALL =           0.0000
         EVAPORATION =           0.0000           EVAPORATION =           0.0000
              RUNOFF =           0.0000                RUNOFF =           0.0000
          EXT-INFLOW =       26784.0000            EXT-INFLOW =          43.2000
         EXT-OUTFLOW =           0.0000           EXT-OUTFLOW =           0.0000
             STORAGE =           0.0000               STORAGE =           0.0000
            CONSTANT =           0.0000              CONSTANT =           0.0000

            TOTAL IN =       26784.0000              TOTAL IN =          43.2000

          OUT:                                     OUT:
          ----                                     ----
                 GWF =       26784.0000                   GWF =          43.2000
            RAINFALL =           0.0000              RAINFALL =           0.0000
         EVAPORATION =           0.0000           EVAPORATION =           0.0000
              RUNOFF =           0.0000                RUNOFF =           0.0000
          EXT-INFLOW =           0.0000            EXT-INFLOW =           0.0000
         EXT-OUTFLOW =           0.0000           EXT-OUTFLOW =           0.0000
             STORAGE =       2.7756E-16               STORAGE =           0.0000
            CONSTANT =           0.0000              CONSTANT =           0.0000

           TOTAL OUT =       26784.0000             TOTAL OUT =          43.2000

            IN - OUT =           0.0000              IN - OUT =           0.0000

 PERCENT DISCREPANCY =           0.00     PERCENT DISCREPANCY =           0.00



  MASS BUDGET FOR ENTIRE MODEL AT END OF TIME STEP   62, STRESS PERIOD   1
  ---------------------------------------------------------------------------------------------------

     CUMULATIVE MASS      M       RATES FOR THIS TIME STEP      M/T          PACKAGE NAME    
     ------------------                 ------------------------                     ----------------

           IN:                                      IN:
           ---                                      ---
     STORAGE-AQUEOUS =       2.4160E-13       STORAGE-AQUEOUS =       5.5582E-16     MST             
               RCH-1 =           0.0000                 RCH-1 =           0.0000     SSM             
               CHD-1 =           0.0000                 CHD-1 =           0.0000     SSM             
     FLOW-CORRECTION =       2.9315E-06       FLOW-CORRECTION =       2.7263E-08                     
                 SFT =       26784.0000                   SFT =          43.2000     SFR-1           

            TOTAL IN =       26784.0000              TOTAL IN =          43.2000

          OUT:                                     OUT:
          ----                                     ----
     STORAGE-AQUEOUS =       26783.9997       STORAGE-AQUEOUS =          43.2000     MST             
               RCH-1 =           0.0000                 RCH-1 =           0.0000     SSM             
               CHD-1 =       2.7892E-62                 CHD-1 =       1.9322E-63     SSM             
     FLOW-CORRECTION =       2.6416E-04       FLOW-CORRECTION =       7.8255E-07                     
                 SFT =           0.0000                   SFT =           0.0000     SFR-1           

           TOTAL OUT =       26784.0000             TOTAL OUT =          43.2000

            IN - OUT =       9.1300E-06              IN - OUT =       1.0019E-09

 PERCENT DISCREPANCY =           0.00     PERCENT DISCREPANCY =           0.00




         TIME SUMMARY AT END OF TIME STEP   62 IN STRESS PERIOD    1
                    SECONDS     MINUTES      HOURS       DAYS        YEARS
                    -----------------------------------------------------------
   TIME STEP LENGTH 8.64000E+05  14400.      240.00      10.000     2.73785E-02
 STRESS PERIOD TIME 5.35680E+07 8.92800E+05  14880.      620.00      1.6975    
         TOTAL TIME 5.35680E+07 8.92800E+05  14880.      620.00      1.6975    


end timestep


start timestep kper="1" kstp="63" mode="normal"


 FMI SETTING BUDGET TERMS FOR KSTP 63 AND KPER 1 TO BUDGET FILE TERMS FROM KSTP 1 AND KPER 1

 FMI SETTING HEAD FOR KSTP 63 AND KPER 1 TO BINARY FILE HEADS FROM KSTP 1 AND KPER 1

 SFR-1 SETTING BUDGET TERMS FOR KSTP 63 AND KPER 1 TO BUDGET FILE TERMS FROM KSTP 1 AND KPER 1

 SFT PACKAGE (SFR-1) FLOW RATES   PERIOD      1   STEP       63
 ----------------------------------------------------------------------------------------
   NUMBER   CELLID                    RATE       NAME                                    
 ----------------------------------------------------------------------------------------
     1      (1,1,169)             21.929568      SFTREACH1                               
     2      (1,1,170)             21.270432      SFTREACH2                               
     3      (1,1,171)             0.0000000      SFTREACH3                               
     4      (1,1,172)             0.0000000      SFTREACH4                               
     5      (1,1,173)             0.0000000      SFTREACH5                               
     6      (1,1,174)             0.0000000      SFTREACH6                               
     7      (1,1,175)             0.0000000      SFTREACH7                               
     8      (1,1,176)             0.0000000      SFTREACH8                               
     9      (1,1,177)             0.0000000      SFTREACH9                               
     10     (1,1,178)             0.0000000      SFTREACH10                              
     11     (1,1,179)             0.0000000      SFTREACH11                              
     12     (1,1,180)             0.0000000      SFTREACH12                              
     13     (1,1,181)             0.0000000      SFTREACH13                              
     14     (1,1,182)             0.0000000      SFTREACH14                              
     15     (1,1,183)             0.0000000      SFTREACH15                              
     16     (1,1,184)             0.0000000      SFTREACH16                              
     17     (1,1,185)             0.0000000      SFTREACH17                              
     18     (1,1,186)             0.0000000      SFTREACH18                              
     19     (1,1,187)             0.0000000      SFTREACH19                              
     20     (1,1,188)             0.0000000      SFTREACH20                              
     21     (1,1,189)             0.0000000      SFTREACH21                              
     22     (1,1,190)             0.0000000      SFTREACH22                              
     23     (1,1,191)             0.0000000      SFTREACH23                              
     24     (1,1,192)             0.0000000      SFTREACH24                              
 ----------------------------------------------------------------------------------------




 SFR-1 PACKAGE - SUMMARY OF FLOWS FOR EACH CONTROL VOLUME   PERIOD      1   STEP       63
 ----------------------------------------------------------------------------------------------------------------------------------------------------------------------
                                                                                                                                                             PERCENT   
   NUMBER      INFLOW      OUTFLOW        GWF        RAINFALL   EVAPORATION     RUNOFF     EXT INFLOW  EXT OUTFLOW    STORAGE      CONSTANT     IN - OUT    DIFFERENCE 
 ----------------------------------------------------------------------------------------------------------------------------------------------------------------------
     1       0.0000      -21.270      -21.930       0.0000       0.0000       0.0000       43.200       0.0000       0.0000       0.0000      -7.10543E-15 -1.64477E-14
     2       21.270       0.0000      -21.270       0.0000       0.0000       0.0000       0.0000       0.0000       0.0000       0.0000       3.55271E-15  1.67026E-14
     3       0.0000       0.0000       0.0000       0.0000       0.0000       0.0000       0.0000       0.0000       0.0000       0.0000       0.0000       0.0000     
     4       0.0000       0.0000       0.0000       0.0000       0.0000       0.0000       0.0000       0.0000       0.0000       0.0000       0.0000       0.0000     
     5       0.0000       0.0000       0.0000       0.0000       0.0000       0.0000       0.0000       0.0000       0.0000       0.0000       0.0000       0.0000     
     6       0.0000       0.0000       0.0000       0.0000       0.0000       0.0000       0.0000       0.0000       0.0000       0.0000       0.0000       0.0000     
     7       0.0000       0.0000       0.0000       0.0000       0.0000       0.0000       0.0000       0.0000       0.0000       0.0000       0.0000       0.0000     
     8       0.0000       0.0000       0.0000       0.0000       0.0000       0.0000       0.0000       0.0000       0.0000       0.0000       0.0000       0.0000     
     9       0.0000       0.0000       0.0000       0.0000       0.0000       0.0000       0.0000       0.0000       0.0000       0.0000       0.0000       0.0000     
     10      0.0000       0.0000       0.0000       0.0000       0.0000       0.0000       0.0000       0.0000       0.0000       0.0000       0.0000       0.0000     
     11      0.0000       0.0000       0.0000       0.0000       0.0000       0.0000       0.0000       0.0000       0.0000       0.0000       0.0000       0.0000     
     12      0.0000       0.0000       0.0000       0.0000       0.0000       0.0000       0.0000       0.0000       0.0000       0.0000       0.0000       0.0000     
     13      0.0000       0.0000       0.0000       0.0000       0.0000       0.0000       0.0000       0.0000       0.0000       0.0000       0.0000       0.0000     
     14      0.0000       0.0000       0.0000       0.0000       0.0000       0.0000       0.0000       0.0000       0.0000       0.0000       0.0000       0.0000     
     15      0.0000       0.0000       0.0000       0.0000       0.0000       0.0000       0.0000       0.0000       0.0000       0.0000       0.0000       0.0000     
     16      0.0000       0.0000       0.0000       0.0000       0.0000       0.0000       0.0000       0.0000       0.0000       0.0000       0.0000       0.0000     
     17      0.0000       0.0000       0.0000       0.0000       0.0000       0.0000       0.0000       0.0000       0.0000       0.0000       0.0000       0.0000     
     18      0.0000       0.0000       0.0000       0.0000       0.0000       0.0000       0.0000       0.0000       0.0000       0.0000       0.0000       0.0000     
     19      0.0000       0.0000       0.0000       0.0000       0.0000       0.0000       0.0000       0.0000       0.0000       0.0000       0.0000       0.0000     
     20      0.0000       0.0000       0.0000       0.0000       0.0000       0.0000       0.0000       0.0000       0.0000       0.0000       0.0000       0.0000     
     21      0.0000       0.0000       0.0000       0.0000       0.0000       0.0000       0.0000       0.0000       0.0000       0.0000       0.0000       0.0000     
     22      0.0000       0.0000       0.0000       0.0000       0.0000       0.0000       0.0000       0.0000       0.0000       0.0000       0.0000       0.0000     
     23      0.0000       0.0000       0.0000       0.0000       0.0000       0.0000       0.0000       0.0000       0.0000       0.0000       0.0000       0.0000     
     24      0.0000       0.0000       0.0000       0.0000       0.0000       0.0000       0.0000       0.0000       0.0000       0.0000       0.0000       0.0000     
 ----------------------------------------------------------------------------------------------------------------------------------------------------------------------




  SFR-1 BUDGET FOR ENTIRE MODEL AT END OF TIME STEP   63, STRESS PERIOD   1
  ------------------------------------------------------------------------------

     CUMULATIVE SFR-1      M       RATES FOR THIS TIME STEP      M/T
     ------------------                 ------------------------

           IN:                                      IN:
           ---                                      ---
                 GWF =           0.0000                   GWF =           0.0000
            RAINFALL =           0.0000              RAINFALL =           0.0000
         EVAPORATION =           0.0000           EVAPORATION =           0.0000
              RUNOFF =           0.0000                RUNOFF =           0.0000
          EXT-INFLOW =       27216.0000            EXT-INFLOW =          43.2000
         EXT-OUTFLOW =           0.0000           EXT-OUTFLOW =           0.0000
             STORAGE =           0.0000               STORAGE =           0.0000
            CONSTANT =           0.0000              CONSTANT =           0.0000

            TOTAL IN =       27216.0000              TOTAL IN =          43.2000

          OUT:                                     OUT:
          ----                                     ----
                 GWF =       27216.0000                   GWF =          43.2000
            RAINFALL =           0.0000              RAINFALL =           0.0000
         EVAPORATION =           0.0000           EVAPORATION =           0.0000
              RUNOFF =           0.0000                RUNOFF =           0.0000
          EXT-INFLOW =           0.0000            EXT-INFLOW =           0.0000
         EXT-OUTFLOW =           0.0000           EXT-OUTFLOW =           0.0000
             STORAGE =       2.7756E-16               STORAGE =           0.0000
            CONSTANT =           0.0000              CONSTANT =           0.0000

           TOTAL OUT =       27216.0000             TOTAL OUT =          43.2000

            IN - OUT =           0.0000              IN - OUT =           0.0000

 PERCENT DISCREPANCY =           0.00     PERCENT DISCREPANCY =           0.00



  MASS BUDGET FOR ENTIRE MODEL AT END OF TIME STEP   63, STRESS PERIOD   1
  ---------------------------------------------------------------------------------------------------

     CUMULATIVE MASS      M       RATES FOR THIS TIME STEP      M/T          PACKAGE NAME    
     ------------------                 ------------------------                     ----------------

           IN:                                      IN:
           ---                                      ---
     STORAGE-AQUEOUS =       2.4716E-13       STORAGE-AQUEOUS =       5.5582E-16     MST             
               RCH-1 =           0.0000                 RCH-1 =           0.0000     SSM             
               CHD-1 =           0.0000                 CHD-1 =           0.0000     SSM             
     FLOW-CORRECTION =       3.2333E-06       FLOW-CORRECTION =       3.0181E-08                     
                 SFT =       27216.0000                   SFT =          43.2000     SFR-1           

            TOTAL IN =       27216.0000              TOTAL IN =          43.2000

          OUT:                                     OUT:
          ----                                     ----
     STORAGE-AQUEOUS =       27215.9997       STORAGE-AQUEOUS =          43.2000     MST             
               RCH-1 =           0.0000                 RCH-1 =           0.0000     SSM             
               CHD-1 =       8.9632E-62                 CHD-1 =       6.1740E-63     SSM             
     FLOW-CORRECTION =       2.7208E-04       FLOW-CORRECTION =       7.9199E-07                     
                 SFT =           0.0000                   SFT =           0.0000     SFR-1           

           TOTAL OUT =       27216.0000             TOTAL OUT =          43.2000

            IN - OUT =       9.1392E-06              IN - OUT =       9.1958E-10

 PERCENT DISCREPANCY =           0.00     PERCENT DISCREPANCY =           0.00




         TIME SUMMARY AT END OF TIME STEP   63 IN STRESS PERIOD    1
                    SECONDS     MINUTES      HOURS       DAYS        YEARS
                    -----------------------------------------------------------
   TIME STEP LENGTH 8.64000E+05  14400.      240.00      10.000     2.73785E-02
 STRESS PERIOD TIME 5.44320E+07 9.07200E+05  15120.      630.00      1.7248    
         TOTAL TIME 5.44320E+07 9.07200E+05  15120.      630.00      1.7248    


end timestep


start timestep kper="1" kstp="64" mode="normal"


 FMI SETTING BUDGET TERMS FOR KSTP 64 AND KPER 1 TO BUDGET FILE TERMS FROM KSTP 1 AND KPER 1

 FMI SETTING HEAD FOR KSTP 64 AND KPER 1 TO BINARY FILE HEADS FROM KSTP 1 AND KPER 1

 SFR-1 SETTING BUDGET TERMS FOR KSTP 64 AND KPER 1 TO BUDGET FILE TERMS FROM KSTP 1 AND KPER 1

 SFT PACKAGE (SFR-1) FLOW RATES   PERIOD      1   STEP       64
 ----------------------------------------------------------------------------------------
   NUMBER   CELLID                    RATE       NAME                                    
 ----------------------------------------------------------------------------------------
     1      (1,1,169)             21.929568      SFTREACH1                               
     2      (1,1,170)             21.270432      SFTREACH2                               
     3      (1,1,171)             0.0000000      SFTREACH3                               
     4      (1,1,172)             0.0000000      SFTREACH4                               
     5      (1,1,173)             0.0000000      SFTREACH5                               
     6      (1,1,174)             0.0000000      SFTREACH6                               
     7      (1,1,175)             0.0000000      SFTREACH7                               
     8      (1,1,176)             0.0000000      SFTREACH8                               
     9      (1,1,177)             0.0000000      SFTREACH9                               
     10     (1,1,178)             0.0000000      SFTREACH10                              
     11     (1,1,179)             0.0000000      SFTREACH11                              
     12     (1,1,180)             0.0000000      SFTREACH12                              
     13     (1,1,181)             0.0000000      SFTREACH13                              
     14     (1,1,182)             0.0000000      SFTREACH14                              
     15     (1,1,183)             0.0000000      SFTREACH15                              
     16     (1,1,184)             0.0000000      SFTREACH16                              
     17     (1,1,185)             0.0000000      SFTREACH17                              
     18     (1,1,186)             0.0000000      SFTREACH18                              
     19     (1,1,187)             0.0000000      SFTREACH19                              
     20     (1,1,188)             0.0000000      SFTREACH20                              
     21     (1,1,189)             0.0000000      SFTREACH21                              
     22     (1,1,190)             0.0000000      SFTREACH22                              
     23     (1,1,191)             0.0000000      SFTREACH23                              
     24     (1,1,192)             0.0000000      SFTREACH24                              
 ----------------------------------------------------------------------------------------




 SFR-1 PACKAGE - SUMMARY OF FLOWS FOR EACH CONTROL VOLUME   PERIOD      1   STEP       64
 ----------------------------------------------------------------------------------------------------------------------------------------------------------------------
                                                                                                                                                             PERCENT   
   NUMBER      INFLOW      OUTFLOW        GWF        RAINFALL   EVAPORATION     RUNOFF     EXT INFLOW  EXT OUTFLOW    STORAGE      CONSTANT     IN - OUT    DIFFERENCE 
 ----------------------------------------------------------------------------------------------------------------------------------------------------------------------
     1       0.0000      -21.270      -21.930       0.0000       0.0000       0.0000       43.200       0.0000       0.0000       0.0000      -7.10543E-15 -1.64477E-14
     2       21.270       0.0000      -21.270       0.0000       0.0000       0.0000       0.0000       0.0000       0.0000       0.0000       3.55271E-15  1.67026E-14
     3       0.0000       0.0000       0.0000       0.0000       0.0000       0.0000       0.0000       0.0000       0.0000       0.0000       0.0000       0.0000     
     4       0.0000       0.0000       0.0000       0.0000       0.0000       0.0000       0.0000       0.0000       0.0000       0.0000       0.0000       0.0000     
     5       0.0000       0.0000       0.0000       0.0000       0.0000       0.0000       0.0000       0.0000       0.0000       0.0000       0.0000       0.0000     
     6       0.0000       0.0000       0.0000       0.0000       0.0000       0.0000       0.0000       0.0000       0.0000       0.0000       0.0000       0.0000     
     7       0.0000       0.0000       0.0000       0.0000       0.0000       0.0000       0.0000       0.0000       0.0000       0.0000       0.0000       0.0000     
     8       0.0000       0.0000       0.0000       0.0000       0.0000       0.0000       0.0000       0.0000       0.0000       0.0000       0.0000       0.0000     
     9       0.0000       0.0000       0.0000       0.0000       0.0000       0.0000       0.0000       0.0000       0.0000       0.0000       0.0000       0.0000     
     10      0.0000       0.0000       0.0000       0.0000       0.0000       0.0000       0.0000       0.0000       0.0000       0.0000       0.0000       0.0000     
     11      0.0000       0.0000       0.0000       0.0000       0.0000       0.0000       0.0000       0.0000       0.0000       0.0000       0.0000       0.0000     
     12      0.0000       0.0000       0.0000       0.0000       0.0000       0.0000       0.0000       0.0000       0.0000       0.0000       0.0000       0.0000     
     13      0.0000       0.0000       0.0000       0.0000       0.0000       0.0000       0.0000       0.0000       0.0000       0.0000       0.0000       0.0000     
     14      0.0000       0.0000       0.0000       0.0000       0.0000       0.0000       0.0000       0.0000       0.0000       0.0000       0.0000       0.0000     
     15      0.0000       0.0000       0.0000       0.0000       0.0000       0.0000       0.0000       0.0000       0.0000       0.0000       0.0000       0.0000     
     16      0.0000       0.0000       0.0000       0.0000       0.0000       0.0000       0.0000       0.0000       0.0000       0.0000       0.0000       0.0000     
     17      0.0000       0.0000       0.0000       0.0000       0.0000       0.0000       0.0000       0.0000       0.0000       0.0000       0.0000       0.0000     
     18      0.0000       0.0000       0.0000       0.0000       0.0000       0.0000       0.0000       0.0000       0.0000       0.0000       0.0000       0.0000     
     19      0.0000       0.0000       0.0000       0.0000       0.0000       0.0000       0.0000       0.0000       0.0000       0.0000       0.0000       0.0000     
     20      0.0000       0.0000       0.0000       0.0000       0.0000       0.0000       0.0000       0.0000       0.0000       0.0000       0.0000       0.0000     
     21      0.0000       0.0000       0.0000       0.0000       0.0000       0.0000       0.0000       0.0000       0.0000       0.0000       0.0000       0.0000     
     22      0.0000       0.0000       0.0000       0.0000       0.0000       0.0000       0.0000       0.0000       0.0000       0.0000       0.0000       0.0000     
     23      0.0000       0.0000       0.0000       0.0000       0.0000       0.0000       0.0000       0.0000       0.0000       0.0000       0.0000       0.0000     
     24      0.0000       0.0000       0.0000       0.0000       0.0000       0.0000       0.0000       0.0000       0.0000       0.0000       0.0000       0.0000     
 ----------------------------------------------------------------------------------------------------------------------------------------------------------------------




  SFR-1 BUDGET FOR ENTIRE MODEL AT END OF TIME STEP   64, STRESS PERIOD   1
  ------------------------------------------------------------------------------

     CUMULATIVE SFR-1      M       RATES FOR THIS TIME STEP      M/T
     ------------------                 ------------------------

           IN:                                      IN:
           ---                                      ---
                 GWF =           0.0000                   GWF =           0.0000
            RAINFALL =           0.0000              RAINFALL =           0.0000
         EVAPORATION =           0.0000           EVAPORATION =           0.0000
              RUNOFF =           0.0000                RUNOFF =           0.0000
          EXT-INFLOW =       27648.0000            EXT-INFLOW =          43.2000
         EXT-OUTFLOW =           0.0000           EXT-OUTFLOW =           0.0000
             STORAGE =           0.0000               STORAGE =           0.0000
            CONSTANT =           0.0000              CONSTANT =           0.0000

            TOTAL IN =       27648.0000              TOTAL IN =          43.2000

          OUT:                                     OUT:
          ----                                     ----
                 GWF =       27648.0000                   GWF =          43.2000
            RAINFALL =           0.0000              RAINFALL =           0.0000
         EVAPORATION =           0.0000           EVAPORATION =           0.0000
              RUNOFF =           0.0000                RUNOFF =           0.0000
          EXT-INFLOW =           0.0000            EXT-INFLOW =           0.0000
         EXT-OUTFLOW =           0.0000           EXT-OUTFLOW =           0.0000
             STORAGE =       2.7756E-16               STORAGE =           0.0000
            CONSTANT =           0.0000              CONSTANT =           0.0000

           TOTAL OUT =       27648.0000             TOTAL OUT =          43.2000

            IN - OUT =           0.0000              IN - OUT =           0.0000

 PERCENT DISCREPANCY =           0.00     PERCENT DISCREPANCY =           0.00



  MASS BUDGET FOR ENTIRE MODEL AT END OF TIME STEP   64, STRESS PERIOD   1
  ---------------------------------------------------------------------------------------------------

     CUMULATIVE MASS      M       RATES FOR THIS TIME STEP      M/T          PACKAGE NAME    
     ------------------                 ------------------------                     ----------------

           IN:                                      IN:
           ---                                      ---
     STORAGE-AQUEOUS =       2.5272E-13       STORAGE-AQUEOUS =       5.5582E-16     MST             
               RCH-1 =           0.0000                 RCH-1 =           0.0000     SSM             
               CHD-1 =           0.0000                 CHD-1 =           0.0000     SSM             
     FLOW-CORRECTION =       3.5669E-06       FLOW-CORRECTION =       3.3365E-08                     
                 SFT =       27648.0000                   SFT =          43.2000     SFR-1           

            TOTAL IN =       27648.0000              TOTAL IN =          43.2000

          OUT:                                     OUT:
          ----                                     ----
     STORAGE-AQUEOUS =       27647.9997       STORAGE-AQUEOUS =          43.2000     MST             
               RCH-1 =           0.0000                 RCH-1 =           0.0000     SSM             
               CHD-1 =       2.8446E-61                 CHD-1 =       1.9483E-62     SSM             
     FLOW-CORRECTION =       2.8010E-04       FLOW-CORRECTION =       8.0137E-07                     
                 SFT =           0.0000                   SFT =           0.0000     SFR-1           

           TOTAL OUT =       27648.0000             TOTAL OUT =          43.2000

            IN - OUT =       9.1505E-06              IN - OUT =       1.1360E-09

 PERCENT DISCREPANCY =           0.00     PERCENT DISCREPANCY =           0.00




         TIME SUMMARY AT END OF TIME STEP   64 IN STRESS PERIOD    1
                    SECONDS     MINUTES      HOURS       DAYS        YEARS
                    -----------------------------------------------------------
   TIME STEP LENGTH 8.64000E+05  14400.      240.00      10.000     2.73785E-02
 STRESS PERIOD TIME 5.52960E+07 9.21600E+05  15360.      640.00      1.7522    
         TOTAL TIME 5.52960E+07 9.21600E+05  15360.      640.00      1.7522    


end timestep


start timestep kper="1" kstp="65" mode="normal"


 FMI SETTING BUDGET TERMS FOR KSTP 65 AND KPER 1 TO BUDGET FILE TERMS FROM KSTP 1 AND KPER 1

 FMI SETTING HEAD FOR KSTP 65 AND KPER 1 TO BINARY FILE HEADS FROM KSTP 1 AND KPER 1

 SFR-1 SETTING BUDGET TERMS FOR KSTP 65 AND KPER 1 TO BUDGET FILE TERMS FROM KSTP 1 AND KPER 1

 SFT PACKAGE (SFR-1) FLOW RATES   PERIOD      1   STEP       65
 ----------------------------------------------------------------------------------------
   NUMBER   CELLID                    RATE       NAME                                    
 ----------------------------------------------------------------------------------------
     1      (1,1,169)             21.929568      SFTREACH1                               
     2      (1,1,170)             21.270432      SFTREACH2                               
     3      (1,1,171)             0.0000000      SFTREACH3                               
     4      (1,1,172)             0.0000000      SFTREACH4                               
     5      (1,1,173)             0.0000000      SFTREACH5                               
     6      (1,1,174)             0.0000000      SFTREACH6                               
     7      (1,1,175)             0.0000000      SFTREACH7                               
     8      (1,1,176)             0.0000000      SFTREACH8                               
     9      (1,1,177)             0.0000000      SFTREACH9                               
     10     (1,1,178)             0.0000000      SFTREACH10                              
     11     (1,1,179)             0.0000000      SFTREACH11                              
     12     (1,1,180)             0.0000000      SFTREACH12                              
     13     (1,1,181)             0.0000000      SFTREACH13                              
     14     (1,1,182)             0.0000000      SFTREACH14                              
     15     (1,1,183)             0.0000000      SFTREACH15                              
     16     (1,1,184)             0.0000000      SFTREACH16                              
     17     (1,1,185)             0.0000000      SFTREACH17                              
     18     (1,1,186)             0.0000000      SFTREACH18                              
     19     (1,1,187)             0.0000000      SFTREACH19                              
     20     (1,1,188)             0.0000000      SFTREACH20                              
     21     (1,1,189)             0.0000000      SFTREACH21                              
     22     (1,1,190)             0.0000000      SFTREACH22                              
     23     (1,1,191)             0.0000000      SFTREACH23                              
     24     (1,1,192)             0.0000000      SFTREACH24                              
 ----------------------------------------------------------------------------------------




 SFR-1 PACKAGE - SUMMARY OF FLOWS FOR EACH CONTROL VOLUME   PERIOD      1   STEP       65
 ----------------------------------------------------------------------------------------------------------------------------------------------------------------------
                                                                                                                                                             PERCENT   
   NUMBER      INFLOW      OUTFLOW        GWF        RAINFALL   EVAPORATION     RUNOFF     EXT INFLOW  EXT OUTFLOW    STORAGE      CONSTANT     IN - OUT    DIFFERENCE 
 ----------------------------------------------------------------------------------------------------------------------------------------------------------------------
     1       0.0000      -21.270      -21.930       0.0000       0.0000       0.0000       43.200       0.0000       0.0000       0.0000      -7.10543E-15 -1.64477E-14
     2       21.270       0.0000      -21.270       0.0000       0.0000       0.0000       0.0000       0.0000       0.0000       0.0000       3.55271E-15  1.67026E-14
     3       0.0000       0.0000       0.0000       0.0000       0.0000       0.0000       0.0000       0.0000       0.0000       0.0000       0.0000       0.0000     
     4       0.0000       0.0000       0.0000       0.0000       0.0000       0.0000       0.0000       0.0000       0.0000       0.0000       0.0000       0.0000     
     5       0.0000       0.0000       0.0000       0.0000       0.0000       0.0000       0.0000       0.0000       0.0000       0.0000       0.0000       0.0000     
     6       0.0000       0.0000       0.0000       0.0000       0.0000       0.0000       0.0000       0.0000       0.0000       0.0000       0.0000       0.0000     
     7       0.0000       0.0000       0.0000       0.0000       0.0000       0.0000       0.0000       0.0000       0.0000       0.0000       0.0000       0.0000     
     8       0.0000       0.0000       0.0000       0.0000       0.0000       0.0000       0.0000       0.0000       0.0000       0.0000       0.0000       0.0000     
     9       0.0000       0.0000       0.0000       0.0000       0.0000       0.0000       0.0000       0.0000       0.0000       0.0000       0.0000       0.0000     
     10      0.0000       0.0000       0.0000       0.0000       0.0000       0.0000       0.0000       0.0000       0.0000       0.0000       0.0000       0.0000     
     11      0.0000       0.0000       0.0000       0.0000       0.0000       0.0000       0.0000       0.0000       0.0000       0.0000       0.0000       0.0000     
     12      0.0000       0.0000       0.0000       0.0000       0.0000       0.0000       0.0000       0.0000       0.0000       0.0000       0.0000       0.0000     
     13      0.0000       0.0000       0.0000       0.0000       0.0000       0.0000       0.0000       0.0000       0.0000       0.0000       0.0000       0.0000     
     14      0.0000       0.0000       0.0000       0.0000       0.0000       0.0000       0.0000       0.0000       0.0000       0.0000       0.0000       0.0000     
     15      0.0000       0.0000       0.0000       0.0000       0.0000       0.0000       0.0000       0.0000       0.0000       0.0000       0.0000       0.0000     
     16      0.0000       0.0000       0.0000       0.0000       0.0000       0.0000       0.0000       0.0000       0.0000       0.0000       0.0000       0.0000     
     17      0.0000       0.0000       0.0000       0.0000       0.0000       0.0000       0.0000       0.0000       0.0000       0.0000       0.0000       0.0000     
     18      0.0000       0.0000       0.0000       0.0000       0.0000       0.0000       0.0000       0.0000       0.0000       0.0000       0.0000       0.0000     
     19      0.0000       0.0000       0.0000       0.0000       0.0000       0.0000       0.0000       0.0000       0.0000       0.0000       0.0000       0.0000     
     20      0.0000       0.0000       0.0000       0.0000       0.0000       0.0000       0.0000       0.0000       0.0000       0.0000       0.0000       0.0000     
     21      0.0000       0.0000       0.0000       0.0000       0.0000       0.0000       0.0000       0.0000       0.0000       0.0000       0.0000       0.0000     
     22      0.0000       0.0000       0.0000       0.0000       0.0000       0.0000       0.0000       0.0000       0.0000       0.0000       0.0000       0.0000     
     23      0.0000       0.0000       0.0000       0.0000       0.0000       0.0000       0.0000       0.0000       0.0000       0.0000       0.0000       0.0000     
     24      0.0000       0.0000       0.0000       0.0000       0.0000       0.0000       0.0000       0.0000       0.0000       0.0000       0.0000       0.0000     
 ----------------------------------------------------------------------------------------------------------------------------------------------------------------------




  SFR-1 BUDGET FOR ENTIRE MODEL AT END OF TIME STEP   65, STRESS PERIOD   1
  ------------------------------------------------------------------------------

     CUMULATIVE SFR-1      M       RATES FOR THIS TIME STEP      M/T
     ------------------                 ------------------------

           IN:                                      IN:
           ---                                      ---
                 GWF =           0.0000                   GWF =           0.0000
            RAINFALL =           0.0000              RAINFALL =           0.0000
         EVAPORATION =           0.0000           EVAPORATION =           0.0000
              RUNOFF =           0.0000                RUNOFF =           0.0000
          EXT-INFLOW =       28080.0000            EXT-INFLOW =          43.2000
         EXT-OUTFLOW =           0.0000           EXT-OUTFLOW =           0.0000
             STORAGE =           0.0000               STORAGE =           0.0000
            CONSTANT =           0.0000              CONSTANT =           0.0000

            TOTAL IN =       28080.0000              TOTAL IN =          43.2000

          OUT:                                     OUT:
          ----                                     ----
                 GWF =       28080.0000                   GWF =          43.2000
            RAINFALL =           0.0000              RAINFALL =           0.0000
         EVAPORATION =           0.0000           EVAPORATION =           0.0000
              RUNOFF =           0.0000                RUNOFF =           0.0000
          EXT-INFLOW =           0.0000            EXT-INFLOW =           0.0000
         EXT-OUTFLOW =           0.0000           EXT-OUTFLOW =           0.0000
             STORAGE =       2.7756E-16               STORAGE =           0.0000
            CONSTANT =           0.0000              CONSTANT =           0.0000

           TOTAL OUT =       28080.0000             TOTAL OUT =          43.2000

            IN - OUT =           0.0000              IN - OUT =           0.0000

 PERCENT DISCREPANCY =           0.00     PERCENT DISCREPANCY =           0.00



  MASS BUDGET FOR ENTIRE MODEL AT END OF TIME STEP   65, STRESS PERIOD   1
  ---------------------------------------------------------------------------------------------------

     CUMULATIVE MASS      M       RATES FOR THIS TIME STEP      M/T          PACKAGE NAME    
     ------------------                 ------------------------                     ----------------

           IN:                                      IN:
           ---                                      ---
     STORAGE-AQUEOUS =       2.5828E-13       STORAGE-AQUEOUS =       5.5582E-16     MST             
               RCH-1 =           0.0000                 RCH-1 =           0.0000     SSM             
               CHD-1 =           0.0000                 CHD-1 =           0.0000     SSM             
     FLOW-CORRECTION =       3.9353E-06       FLOW-CORRECTION =       3.6834E-08                     
                 SFT =       28080.0000                   SFT =          43.2000     SFR-1           

            TOTAL IN =       28080.0000              TOTAL IN =          43.2000

          OUT:                                     OUT:
          ----                                     ----
     STORAGE-AQUEOUS =       28079.9997       STORAGE-AQUEOUS =          43.2000     MST             
               RCH-1 =           0.0000                 RCH-1 =           0.0000     SSM             
               CHD-1 =       8.9183E-61                 CHD-1 =       6.0736E-62     SSM             
     FLOW-CORRECTION =       2.8821E-04       FLOW-CORRECTION =       8.1069E-07                     
                 SFT =           0.0000                   SFT =           0.0000     SFR-1           

           TOTAL OUT =       28080.0000             TOTAL OUT =          43.2000

            IN - OUT =       9.1419E-06              IN - OUT =      -8.6649E-10

 PERCENT DISCREPANCY =           0.00     PERCENT DISCREPANCY =          -0.00




         TIME SUMMARY AT END OF TIME STEP   65 IN STRESS PERIOD    1
                    SECONDS     MINUTES      HOURS       DAYS        YEARS
                    -----------------------------------------------------------
   TIME STEP LENGTH 8.64000E+05  14400.      240.00      10.000     2.73785E-02
 STRESS PERIOD TIME 5.61600E+07 9.36000E+05  15600.      650.00      1.7796    
         TOTAL TIME 5.61600E+07 9.36000E+05  15600.      650.00      1.7796    


end timestep


start timestep kper="1" kstp="66" mode="normal"


 FMI SETTING BUDGET TERMS FOR KSTP 66 AND KPER 1 TO BUDGET FILE TERMS FROM KSTP 1 AND KPER 1

 FMI SETTING HEAD FOR KSTP 66 AND KPER 1 TO BINARY FILE HEADS FROM KSTP 1 AND KPER 1

 SFR-1 SETTING BUDGET TERMS FOR KSTP 66 AND KPER 1 TO BUDGET FILE TERMS FROM KSTP 1 AND KPER 1

 SFT PACKAGE (SFR-1) FLOW RATES   PERIOD      1   STEP       66
 ----------------------------------------------------------------------------------------
   NUMBER   CELLID                    RATE       NAME                                    
 ----------------------------------------------------------------------------------------
     1      (1,1,169)             21.929568      SFTREACH1                               
     2      (1,1,170)             21.270432      SFTREACH2                               
     3      (1,1,171)             0.0000000      SFTREACH3                               
     4      (1,1,172)             0.0000000      SFTREACH4                               
     5      (1,1,173)             0.0000000      SFTREACH5                               
     6      (1,1,174)             0.0000000      SFTREACH6                               
     7      (1,1,175)             0.0000000      SFTREACH7                               
     8      (1,1,176)             0.0000000      SFTREACH8                               
     9      (1,1,177)             0.0000000      SFTREACH9                               
     10     (1,1,178)             0.0000000      SFTREACH10                              
     11     (1,1,179)             0.0000000      SFTREACH11                              
     12     (1,1,180)             0.0000000      SFTREACH12                              
     13     (1,1,181)             0.0000000      SFTREACH13                              
     14     (1,1,182)             0.0000000      SFTREACH14                              
     15     (1,1,183)             0.0000000      SFTREACH15                              
     16     (1,1,184)             0.0000000      SFTREACH16                              
     17     (1,1,185)             0.0000000      SFTREACH17                              
     18     (1,1,186)             0.0000000      SFTREACH18                              
     19     (1,1,187)             0.0000000      SFTREACH19                              
     20     (1,1,188)             0.0000000      SFTREACH20                              
     21     (1,1,189)             0.0000000      SFTREACH21                              
     22     (1,1,190)             0.0000000      SFTREACH22                              
     23     (1,1,191)             0.0000000      SFTREACH23                              
     24     (1,1,192)             0.0000000      SFTREACH24                              
 ----------------------------------------------------------------------------------------




 SFR-1 PACKAGE - SUMMARY OF FLOWS FOR EACH CONTROL VOLUME   PERIOD      1   STEP       66
 ----------------------------------------------------------------------------------------------------------------------------------------------------------------------
                                                                                                                                                             PERCENT   
   NUMBER      INFLOW      OUTFLOW        GWF        RAINFALL   EVAPORATION     RUNOFF     EXT INFLOW  EXT OUTFLOW    STORAGE      CONSTANT     IN - OUT    DIFFERENCE 
 ----------------------------------------------------------------------------------------------------------------------------------------------------------------------
     1       0.0000      -21.270      -21.930       0.0000       0.0000       0.0000       43.200       0.0000       0.0000       0.0000      -7.10543E-15 -1.64477E-14
     2       21.270       0.0000      -21.270       0.0000       0.0000       0.0000       0.0000       0.0000       0.0000       0.0000       3.55271E-15  1.67026E-14
     3       0.0000       0.0000       0.0000       0.0000       0.0000       0.0000       0.0000       0.0000       0.0000       0.0000       0.0000       0.0000     
     4       0.0000       0.0000       0.0000       0.0000       0.0000       0.0000       0.0000       0.0000       0.0000       0.0000       0.0000       0.0000     
     5       0.0000       0.0000       0.0000       0.0000       0.0000       0.0000       0.0000       0.0000       0.0000       0.0000       0.0000       0.0000     
     6       0.0000       0.0000       0.0000       0.0000       0.0000       0.0000       0.0000       0.0000       0.0000       0.0000       0.0000       0.0000     
     7       0.0000       0.0000       0.0000       0.0000       0.0000       0.0000       0.0000       0.0000       0.0000       0.0000       0.0000       0.0000     
     8       0.0000       0.0000       0.0000       0.0000       0.0000       0.0000       0.0000       0.0000       0.0000       0.0000       0.0000       0.0000     
     9       0.0000       0.0000       0.0000       0.0000       0.0000       0.0000       0.0000       0.0000       0.0000       0.0000       0.0000       0.0000     
     10      0.0000       0.0000       0.0000       0.0000       0.0000       0.0000       0.0000       0.0000       0.0000       0.0000       0.0000       0.0000     
     11      0.0000       0.0000       0.0000       0.0000       0.0000       0.0000       0.0000       0.0000       0.0000       0.0000       0.0000       0.0000     
     12      0.0000       0.0000       0.0000       0.0000       0.0000       0.0000       0.0000       0.0000       0.0000       0.0000       0.0000       0.0000     
     13      0.0000       0.0000       0.0000       0.0000       0.0000       0.0000       0.0000       0.0000       0.0000       0.0000       0.0000       0.0000     
     14      0.0000       0.0000       0.0000       0.0000       0.0000       0.0000       0.0000       0.0000       0.0000       0.0000       0.0000       0.0000     
     15      0.0000       0.0000       0.0000       0.0000       0.0000       0.0000       0.0000       0.0000       0.0000       0.0000       0.0000       0.0000     
     16      0.0000       0.0000       0.0000       0.0000       0.0000       0.0000       0.0000       0.0000       0.0000       0.0000       0.0000       0.0000     
     17      0.0000       0.0000       0.0000       0.0000       0.0000       0.0000       0.0000       0.0000       0.0000       0.0000       0.0000       0.0000     
     18      0.0000       0.0000       0.0000       0.0000       0.0000       0.0000       0.0000       0.0000       0.0000       0.0000       0.0000       0.0000     
     19      0.0000       0.0000       0.0000       0.0000       0.0000       0.0000       0.0000       0.0000       0.0000       0.0000       0.0000       0.0000     
     20      0.0000       0.0000       0.0000       0.0000       0.0000       0.0000       0.0000       0.0000       0.0000       0.0000       0.0000       0.0000     
     21      0.0000       0.0000       0.0000       0.0000       0.0000       0.0000       0.0000       0.0000       0.0000       0.0000       0.0000       0.0000     
     22      0.0000       0.0000       0.0000       0.0000       0.0000       0.0000       0.0000       0.0000       0.0000       0.0000       0.0000       0.0000     
     23      0.0000       0.0000       0.0000       0.0000       0.0000       0.0000       0.0000       0.0000       0.0000       0.0000       0.0000       0.0000     
     24      0.0000       0.0000       0.0000       0.0000       0.0000       0.0000       0.0000       0.0000       0.0000       0.0000       0.0000       0.0000     
 ----------------------------------------------------------------------------------------------------------------------------------------------------------------------




  SFR-1 BUDGET FOR ENTIRE MODEL AT END OF TIME STEP   66, STRESS PERIOD   1
  ------------------------------------------------------------------------------

     CUMULATIVE SFR-1      M       RATES FOR THIS TIME STEP      M/T
     ------------------                 ------------------------

           IN:                                      IN:
           ---                                      ---
                 GWF =           0.0000                   GWF =           0.0000
            RAINFALL =           0.0000              RAINFALL =           0.0000
         EVAPORATION =           0.0000           EVAPORATION =           0.0000
              RUNOFF =           0.0000                RUNOFF =           0.0000
          EXT-INFLOW =       28512.0000            EXT-INFLOW =          43.2000
         EXT-OUTFLOW =           0.0000           EXT-OUTFLOW =           0.0000
             STORAGE =           0.0000               STORAGE =           0.0000
            CONSTANT =           0.0000              CONSTANT =           0.0000

            TOTAL IN =       28512.0000              TOTAL IN =          43.2000

          OUT:                                     OUT:
          ----                                     ----
                 GWF =       28512.0000                   GWF =          43.2000
            RAINFALL =           0.0000              RAINFALL =           0.0000
         EVAPORATION =           0.0000           EVAPORATION =           0.0000
              RUNOFF =           0.0000                RUNOFF =           0.0000
          EXT-INFLOW =           0.0000            EXT-INFLOW =           0.0000
         EXT-OUTFLOW =           0.0000           EXT-OUTFLOW =           0.0000
             STORAGE =       2.7756E-16               STORAGE =           0.0000
            CONSTANT =           0.0000              CONSTANT =           0.0000

           TOTAL OUT =       28512.0000             TOTAL OUT =          43.2000

            IN - OUT =           0.0000              IN - OUT =           0.0000

 PERCENT DISCREPANCY =           0.00     PERCENT DISCREPANCY =           0.00



  MASS BUDGET FOR ENTIRE MODEL AT END OF TIME STEP   66, STRESS PERIOD   1
  ---------------------------------------------------------------------------------------------------

     CUMULATIVE MASS      M       RATES FOR THIS TIME STEP      M/T          PACKAGE NAME    
     ------------------                 ------------------------                     ----------------

           IN:                                      IN:
           ---                                      ---
     STORAGE-AQUEOUS =       2.6384E-13       STORAGE-AQUEOUS =       5.5582E-16     MST             
               RCH-1 =           0.0000                 RCH-1 =           0.0000     SSM             
               CHD-1 =           0.0000                 CHD-1 =           0.0000     SSM             
     FLOW-CORRECTION =       4.3413E-06       FLOW-CORRECTION =       4.0602E-08                     
                 SFT =       28512.0000                   SFT =          43.2000     SFR-1           

            TOTAL IN =       28512.0000              TOTAL IN =          43.2000

          OUT:                                     OUT:
          ----                                     ----
     STORAGE-AQUEOUS =       28511.9997       STORAGE-AQUEOUS =          43.2000     MST             
               RCH-1 =           0.0000                 RCH-1 =           0.0000     SSM             
               CHD-1 =       2.7626E-60                 CHD-1 =       1.8708E-61     SSM             
     FLOW-CORRECTION =       2.9641E-04       FLOW-CORRECTION =       8.1995E-07                     
                 SFT =           0.0000                   SFT =           0.0000     SFR-1           

           TOTAL OUT =       28512.0000             TOTAL OUT =          43.2000

            IN - OUT =       9.1403E-06              IN - OUT =      -1.5523E-10

 PERCENT DISCREPANCY =           0.00     PERCENT DISCREPANCY =          -0.00




         TIME SUMMARY AT END OF TIME STEP   66 IN STRESS PERIOD    1
                    SECONDS     MINUTES      HOURS       DAYS        YEARS
                    -----------------------------------------------------------
   TIME STEP LENGTH 8.64000E+05  14400.      240.00      10.000     2.73785E-02
 STRESS PERIOD TIME 5.70240E+07 9.50400E+05  15840.      660.00      1.8070    
         TOTAL TIME 5.70240E+07 9.50400E+05  15840.      660.00      1.8070    


end timestep


start timestep kper="1" kstp="67" mode="normal"


 FMI SETTING BUDGET TERMS FOR KSTP 67 AND KPER 1 TO BUDGET FILE TERMS FROM KSTP 1 AND KPER 1

 FMI SETTING HEAD FOR KSTP 67 AND KPER 1 TO BINARY FILE HEADS FROM KSTP 1 AND KPER 1

 SFR-1 SETTING BUDGET TERMS FOR KSTP 67 AND KPER 1 TO BUDGET FILE TERMS FROM KSTP 1 AND KPER 1

 SFT PACKAGE (SFR-1) FLOW RATES   PERIOD      1   STEP       67
 ----------------------------------------------------------------------------------------
   NUMBER   CELLID                    RATE       NAME                                    
 ----------------------------------------------------------------------------------------
     1      (1,1,169)             21.929568      SFTREACH1                               
     2      (1,1,170)             21.270432      SFTREACH2                               
     3      (1,1,171)             0.0000000      SFTREACH3                               
     4      (1,1,172)             0.0000000      SFTREACH4                               
     5      (1,1,173)             0.0000000      SFTREACH5                               
     6      (1,1,174)             0.0000000      SFTREACH6                               
     7      (1,1,175)             0.0000000      SFTREACH7                               
     8      (1,1,176)             0.0000000      SFTREACH8                               
     9      (1,1,177)             0.0000000      SFTREACH9                               
     10     (1,1,178)             0.0000000      SFTREACH10                              
     11     (1,1,179)             0.0000000      SFTREACH11                              
     12     (1,1,180)             0.0000000      SFTREACH12                              
     13     (1,1,181)             0.0000000      SFTREACH13                              
     14     (1,1,182)             0.0000000      SFTREACH14                              
     15     (1,1,183)             0.0000000      SFTREACH15                              
     16     (1,1,184)             0.0000000      SFTREACH16                              
     17     (1,1,185)             0.0000000      SFTREACH17                              
     18     (1,1,186)             0.0000000      SFTREACH18                              
     19     (1,1,187)             0.0000000      SFTREACH19                              
     20     (1,1,188)             0.0000000      SFTREACH20                              
     21     (1,1,189)             0.0000000      SFTREACH21                              
     22     (1,1,190)             0.0000000      SFTREACH22                              
     23     (1,1,191)             0.0000000      SFTREACH23                              
     24     (1,1,192)             0.0000000      SFTREACH24                              
 ----------------------------------------------------------------------------------------




 SFR-1 PACKAGE - SUMMARY OF FLOWS FOR EACH CONTROL VOLUME   PERIOD      1   STEP       67
 ----------------------------------------------------------------------------------------------------------------------------------------------------------------------
                                                                                                                                                             PERCENT   
   NUMBER      INFLOW      OUTFLOW        GWF        RAINFALL   EVAPORATION     RUNOFF     EXT INFLOW  EXT OUTFLOW    STORAGE      CONSTANT     IN - OUT    DIFFERENCE 
 ----------------------------------------------------------------------------------------------------------------------------------------------------------------------
     1       0.0000      -21.270      -21.930       0.0000       0.0000       0.0000       43.200       0.0000       0.0000       0.0000      -7.10543E-15 -1.64477E-14
     2       21.270       0.0000      -21.270       0.0000       0.0000       0.0000       0.0000       0.0000       0.0000       0.0000       3.55271E-15  1.67026E-14
     3       0.0000       0.0000       0.0000       0.0000       0.0000       0.0000       0.0000       0.0000       0.0000       0.0000       0.0000       0.0000     
     4       0.0000       0.0000       0.0000       0.0000       0.0000       0.0000       0.0000       0.0000       0.0000       0.0000       0.0000       0.0000     
     5       0.0000       0.0000       0.0000       0.0000       0.0000       0.0000       0.0000       0.0000       0.0000       0.0000       0.0000       0.0000     
     6       0.0000       0.0000       0.0000       0.0000       0.0000       0.0000       0.0000       0.0000       0.0000       0.0000       0.0000       0.0000     
     7       0.0000       0.0000       0.0000       0.0000       0.0000       0.0000       0.0000       0.0000       0.0000       0.0000       0.0000       0.0000     
     8       0.0000       0.0000       0.0000       0.0000       0.0000       0.0000       0.0000       0.0000       0.0000       0.0000       0.0000       0.0000     
     9       0.0000       0.0000       0.0000       0.0000       0.0000       0.0000       0.0000       0.0000       0.0000       0.0000       0.0000       0.0000     
     10      0.0000       0.0000       0.0000       0.0000       0.0000       0.0000       0.0000       0.0000       0.0000       0.0000       0.0000       0.0000     
     11      0.0000       0.0000       0.0000       0.0000       0.0000       0.0000       0.0000       0.0000       0.0000       0.0000       0.0000       0.0000     
     12      0.0000       0.0000       0.0000       0.0000       0.0000       0.0000       0.0000       0.0000       0.0000       0.0000       0.0000       0.0000     
     13      0.0000       0.0000       0.0000       0.0000       0.0000       0.0000       0.0000       0.0000       0.0000       0.0000       0.0000       0.0000     
     14      0.0000       0.0000       0.0000       0.0000       0.0000       0.0000       0.0000       0.0000       0.0000       0.0000       0.0000       0.0000     
     15      0.0000       0.0000       0.0000       0.0000       0.0000       0.0000       0.0000       0.0000       0.0000       0.0000       0.0000       0.0000     
     16      0.0000       0.0000       0.0000       0.0000       0.0000       0.0000       0.0000       0.0000       0.0000       0.0000       0.0000       0.0000     
     17      0.0000       0.0000       0.0000       0.0000       0.0000       0.0000       0.0000       0.0000       0.0000       0.0000       0.0000       0.0000     
     18      0.0000       0.0000       0.0000       0.0000       0.0000       0.0000       0.0000       0.0000       0.0000       0.0000       0.0000       0.0000     
     19      0.0000       0.0000       0.0000       0.0000       0.0000       0.0000       0.0000       0.0000       0.0000       0.0000       0.0000       0.0000     
     20      0.0000       0.0000       0.0000       0.0000       0.0000       0.0000       0.0000       0.0000       0.0000       0.0000       0.0000       0.0000     
     21      0.0000       0.0000       0.0000       0.0000       0.0000       0.0000       0.0000       0.0000       0.0000       0.0000       0.0000       0.0000     
     22      0.0000       0.0000       0.0000       0.0000       0.0000       0.0000       0.0000       0.0000       0.0000       0.0000       0.0000       0.0000     
     23      0.0000       0.0000       0.0000       0.0000       0.0000       0.0000       0.0000       0.0000       0.0000       0.0000       0.0000       0.0000     
     24      0.0000       0.0000       0.0000       0.0000       0.0000       0.0000       0.0000       0.0000       0.0000       0.0000       0.0000       0.0000     
 ----------------------------------------------------------------------------------------------------------------------------------------------------------------------




  SFR-1 BUDGET FOR ENTIRE MODEL AT END OF TIME STEP   67, STRESS PERIOD   1
  ------------------------------------------------------------------------------

     CUMULATIVE SFR-1      M       RATES FOR THIS TIME STEP      M/T
     ------------------                 ------------------------

           IN:                                      IN:
           ---                                      ---
                 GWF =           0.0000                   GWF =           0.0000
            RAINFALL =           0.0000              RAINFALL =           0.0000
         EVAPORATION =           0.0000           EVAPORATION =           0.0000
              RUNOFF =           0.0000                RUNOFF =           0.0000
          EXT-INFLOW =       28944.0000            EXT-INFLOW =          43.2000
         EXT-OUTFLOW =           0.0000           EXT-OUTFLOW =           0.0000
             STORAGE =           0.0000               STORAGE =           0.0000
            CONSTANT =           0.0000              CONSTANT =           0.0000

            TOTAL IN =       28944.0000              TOTAL IN =          43.2000

          OUT:                                     OUT:
          ----                                     ----
                 GWF =       28944.0000                   GWF =          43.2000
            RAINFALL =           0.0000              RAINFALL =           0.0000
         EVAPORATION =           0.0000           EVAPORATION =           0.0000
              RUNOFF =           0.0000                RUNOFF =           0.0000
          EXT-INFLOW =           0.0000            EXT-INFLOW =           0.0000
         EXT-OUTFLOW =           0.0000           EXT-OUTFLOW =           0.0000
             STORAGE =       2.7756E-16               STORAGE =           0.0000
            CONSTANT =           0.0000              CONSTANT =           0.0000

           TOTAL OUT =       28944.0000             TOTAL OUT =          43.2000

            IN - OUT =           0.0000              IN - OUT =           0.0000

 PERCENT DISCREPANCY =           0.00     PERCENT DISCREPANCY =           0.00



  MASS BUDGET FOR ENTIRE MODEL AT END OF TIME STEP   67, STRESS PERIOD   1
  ---------------------------------------------------------------------------------------------------

     CUMULATIVE MASS      M       RATES FOR THIS TIME STEP      M/T          PACKAGE NAME    
     ------------------                 ------------------------                     ----------------

           IN:                                      IN:
           ---                                      ---
     STORAGE-AQUEOUS =       2.6939E-13       STORAGE-AQUEOUS =       5.5582E-16     MST             
               RCH-1 =           0.0000                 RCH-1 =           0.0000     SSM             
               CHD-1 =           0.0000                 CHD-1 =           0.0000     SSM             
     FLOW-CORRECTION =       4.7882E-06       FLOW-CORRECTION =       4.4688E-08                     
                 SFT =       28944.0000                   SFT =          43.2000     SFR-1           

            TOTAL IN =       28944.0000              TOTAL IN =          43.2000

          OUT:                                     OUT:
          ----                                     ----
     STORAGE-AQUEOUS =       28943.9997       STORAGE-AQUEOUS =          43.2000     MST             
               RCH-1 =           0.0000                 RCH-1 =           0.0000     SSM             
               CHD-1 =       8.4576E-60                 CHD-1 =       5.6950E-61     SSM             
     FLOW-CORRECTION =       3.0470E-04       FLOW-CORRECTION =       8.2915E-07                     
                 SFT =           0.0000                   SFT =           0.0000     SFR-1           

           TOTAL OUT =       28944.0000             TOTAL OUT =          43.2000

            IN - OUT =       9.1399E-06              IN - OUT =      -4.4103E-11

 PERCENT DISCREPANCY =           0.00     PERCENT DISCREPANCY =          -0.00




         TIME SUMMARY AT END OF TIME STEP   67 IN STRESS PERIOD    1
                    SECONDS     MINUTES      HOURS       DAYS        YEARS
                    -----------------------------------------------------------
   TIME STEP LENGTH 8.64000E+05  14400.      240.00      10.000     2.73785E-02
 STRESS PERIOD TIME 5.78880E+07 9.64800E+05  16080.      670.00      1.8344    
         TOTAL TIME 5.78880E+07 9.64800E+05  16080.      670.00      1.8344    


end timestep


start timestep kper="1" kstp="68" mode="normal"


 FMI SETTING BUDGET TERMS FOR KSTP 68 AND KPER 1 TO BUDGET FILE TERMS FROM KSTP 1 AND KPER 1

 FMI SETTING HEAD FOR KSTP 68 AND KPER 1 TO BINARY FILE HEADS FROM KSTP 1 AND KPER 1

 SFR-1 SETTING BUDGET TERMS FOR KSTP 68 AND KPER 1 TO BUDGET FILE TERMS FROM KSTP 1 AND KPER 1

 SFT PACKAGE (SFR-1) FLOW RATES   PERIOD      1   STEP       68
 ----------------------------------------------------------------------------------------
   NUMBER   CELLID                    RATE       NAME                                    
 ----------------------------------------------------------------------------------------
     1      (1,1,169)             21.929568      SFTREACH1                               
     2      (1,1,170)             21.270432      SFTREACH2                               
     3      (1,1,171)             0.0000000      SFTREACH3                               
     4      (1,1,172)             0.0000000      SFTREACH4                               
     5      (1,1,173)             0.0000000      SFTREACH5                               
     6      (1,1,174)             0.0000000      SFTREACH6                               
     7      (1,1,175)             0.0000000      SFTREACH7                               
     8      (1,1,176)             0.0000000      SFTREACH8                               
     9      (1,1,177)             0.0000000      SFTREACH9                               
     10     (1,1,178)             0.0000000      SFTREACH10                              
     11     (1,1,179)             0.0000000      SFTREACH11                              
     12     (1,1,180)             0.0000000      SFTREACH12                              
     13     (1,1,181)             0.0000000      SFTREACH13                              
     14     (1,1,182)             0.0000000      SFTREACH14                              
     15     (1,1,183)             0.0000000      SFTREACH15                              
     16     (1,1,184)             0.0000000      SFTREACH16                              
     17     (1,1,185)             0.0000000      SFTREACH17                              
     18     (1,1,186)             0.0000000      SFTREACH18                              
     19     (1,1,187)             0.0000000      SFTREACH19                              
     20     (1,1,188)             0.0000000      SFTREACH20                              
     21     (1,1,189)             0.0000000      SFTREACH21                              
     22     (1,1,190)             0.0000000      SFTREACH22                              
     23     (1,1,191)             0.0000000      SFTREACH23                              
     24     (1,1,192)             0.0000000      SFTREACH24                              
 ----------------------------------------------------------------------------------------




 SFR-1 PACKAGE - SUMMARY OF FLOWS FOR EACH CONTROL VOLUME   PERIOD      1   STEP       68
 ----------------------------------------------------------------------------------------------------------------------------------------------------------------------
                                                                                                                                                             PERCENT   
   NUMBER      INFLOW      OUTFLOW        GWF        RAINFALL   EVAPORATION     RUNOFF     EXT INFLOW  EXT OUTFLOW    STORAGE      CONSTANT     IN - OUT    DIFFERENCE 
 ----------------------------------------------------------------------------------------------------------------------------------------------------------------------
     1       0.0000      -21.270      -21.930       0.0000       0.0000       0.0000       43.200       0.0000       0.0000       0.0000      -7.10543E-15 -1.64477E-14
     2       21.270       0.0000      -21.270       0.0000       0.0000       0.0000       0.0000       0.0000       0.0000       0.0000       3.55271E-15  1.67026E-14
     3       0.0000       0.0000       0.0000       0.0000       0.0000       0.0000       0.0000       0.0000       0.0000       0.0000       0.0000       0.0000     
     4       0.0000       0.0000       0.0000       0.0000       0.0000       0.0000       0.0000       0.0000       0.0000       0.0000       0.0000       0.0000     
     5       0.0000       0.0000       0.0000       0.0000       0.0000       0.0000       0.0000       0.0000       0.0000       0.0000       0.0000       0.0000     
     6       0.0000       0.0000       0.0000       0.0000       0.0000       0.0000       0.0000       0.0000       0.0000       0.0000       0.0000       0.0000     
     7       0.0000       0.0000       0.0000       0.0000       0.0000       0.0000       0.0000       0.0000       0.0000       0.0000       0.0000       0.0000     
     8       0.0000       0.0000       0.0000       0.0000       0.0000       0.0000       0.0000       0.0000       0.0000       0.0000       0.0000       0.0000     
     9       0.0000       0.0000       0.0000       0.0000       0.0000       0.0000       0.0000       0.0000       0.0000       0.0000       0.0000       0.0000     
     10      0.0000       0.0000       0.0000       0.0000       0.0000       0.0000       0.0000       0.0000       0.0000       0.0000       0.0000       0.0000     
     11      0.0000       0.0000       0.0000       0.0000       0.0000       0.0000       0.0000       0.0000       0.0000       0.0000       0.0000       0.0000     
     12      0.0000       0.0000       0.0000       0.0000       0.0000       0.0000       0.0000       0.0000       0.0000       0.0000       0.0000       0.0000     
     13      0.0000       0.0000       0.0000       0.0000       0.0000       0.0000       0.0000       0.0000       0.0000       0.0000       0.0000       0.0000     
     14      0.0000       0.0000       0.0000       0.0000       0.0000       0.0000       0.0000       0.0000       0.0000       0.0000       0.0000       0.0000     
     15      0.0000       0.0000       0.0000       0.0000       0.0000       0.0000       0.0000       0.0000       0.0000       0.0000       0.0000       0.0000     
     16      0.0000       0.0000       0.0000       0.0000       0.0000       0.0000       0.0000       0.0000       0.0000       0.0000       0.0000       0.0000     
     17      0.0000       0.0000       0.0000       0.0000       0.0000       0.0000       0.0000       0.0000       0.0000       0.0000       0.0000       0.0000     
     18      0.0000       0.0000       0.0000       0.0000       0.0000       0.0000       0.0000       0.0000       0.0000       0.0000       0.0000       0.0000     
     19      0.0000       0.0000       0.0000       0.0000       0.0000       0.0000       0.0000       0.0000       0.0000       0.0000       0.0000       0.0000     
     20      0.0000       0.0000       0.0000       0.0000       0.0000       0.0000       0.0000       0.0000       0.0000       0.0000       0.0000       0.0000     
     21      0.0000       0.0000       0.0000       0.0000       0.0000       0.0000       0.0000       0.0000       0.0000       0.0000       0.0000       0.0000     
     22      0.0000       0.0000       0.0000       0.0000       0.0000       0.0000       0.0000       0.0000       0.0000       0.0000       0.0000       0.0000     
     23      0.0000       0.0000       0.0000       0.0000       0.0000       0.0000       0.0000       0.0000       0.0000       0.0000       0.0000       0.0000     
     24      0.0000       0.0000       0.0000       0.0000       0.0000       0.0000       0.0000       0.0000       0.0000       0.0000       0.0000       0.0000     
 ----------------------------------------------------------------------------------------------------------------------------------------------------------------------




  SFR-1 BUDGET FOR ENTIRE MODEL AT END OF TIME STEP   68, STRESS PERIOD   1
  ------------------------------------------------------------------------------

     CUMULATIVE SFR-1      M       RATES FOR THIS TIME STEP      M/T
     ------------------                 ------------------------

           IN:                                      IN:
           ---                                      ---
                 GWF =           0.0000                   GWF =           0.0000
            RAINFALL =           0.0000              RAINFALL =           0.0000
         EVAPORATION =           0.0000           EVAPORATION =           0.0000
              RUNOFF =           0.0000                RUNOFF =           0.0000
          EXT-INFLOW =       29376.0000            EXT-INFLOW =          43.2000
         EXT-OUTFLOW =           0.0000           EXT-OUTFLOW =           0.0000
             STORAGE =           0.0000               STORAGE =           0.0000
            CONSTANT =           0.0000              CONSTANT =           0.0000

            TOTAL IN =       29376.0000              TOTAL IN =          43.2000

          OUT:                                     OUT:
          ----                                     ----
                 GWF =       29376.0000                   GWF =          43.2000
            RAINFALL =           0.0000              RAINFALL =           0.0000
         EVAPORATION =           0.0000           EVAPORATION =           0.0000
              RUNOFF =           0.0000                RUNOFF =           0.0000
          EXT-INFLOW =           0.0000            EXT-INFLOW =           0.0000
         EXT-OUTFLOW =           0.0000           EXT-OUTFLOW =           0.0000
             STORAGE =       2.7756E-16               STORAGE =           0.0000
            CONSTANT =           0.0000              CONSTANT =           0.0000

           TOTAL OUT =       29376.0000             TOTAL OUT =          43.2000

            IN - OUT =           0.0000              IN - OUT =           0.0000

 PERCENT DISCREPANCY =           0.00     PERCENT DISCREPANCY =           0.00



  MASS BUDGET FOR ENTIRE MODEL AT END OF TIME STEP   68, STRESS PERIOD   1
  ---------------------------------------------------------------------------------------------------

     CUMULATIVE MASS      M       RATES FOR THIS TIME STEP      M/T          PACKAGE NAME    
     ------------------                 ------------------------                     ----------------

           IN:                                      IN:
           ---                                      ---
     STORAGE-AQUEOUS =       2.7495E-13       STORAGE-AQUEOUS =       5.5582E-16     MST             
               RCH-1 =           0.0000                 RCH-1 =           0.0000     SSM             
               CHD-1 =           0.0000                 CHD-1 =           0.0000     SSM             
     FLOW-CORRECTION =       5.2792E-06       FLOW-CORRECTION =       4.9107E-08                     
                 SFT =       29376.0000                   SFT =          43.2000     SFR-1           

            TOTAL IN =       29376.0000              TOTAL IN =          43.2000

          OUT:                                     OUT:
          ----                                     ----
     STORAGE-AQUEOUS =       29375.9997       STORAGE-AQUEOUS =          43.2000     MST             
               RCH-1 =           0.0000                 RCH-1 =           0.0000     SSM             
               CHD-1 =       2.5595E-59                 CHD-1 =       1.7137E-60     SSM             
     FLOW-CORRECTION =       3.1308E-04       FLOW-CORRECTION =       8.3829E-07                     
                 SFT =           0.0000                   SFT =           0.0000     SFR-1           

           TOTAL OUT =       29376.0000             TOTAL OUT =          43.2000

            IN - OUT =       9.1398E-06              IN - OUT =      -1.2221E-11

 PERCENT DISCREPANCY =           0.00     PERCENT DISCREPANCY =          -0.00




         TIME SUMMARY AT END OF TIME STEP   68 IN STRESS PERIOD    1
                    SECONDS     MINUTES      HOURS       DAYS        YEARS
                    -----------------------------------------------------------
   TIME STEP LENGTH 8.64000E+05  14400.      240.00      10.000     2.73785E-02
 STRESS PERIOD TIME 5.87520E+07 9.79200E+05  16320.      680.00      1.8617    
         TOTAL TIME 5.87520E+07 9.79200E+05  16320.      680.00      1.8617    


end timestep


start timestep kper="1" kstp="69" mode="normal"


 FMI SETTING BUDGET TERMS FOR KSTP 69 AND KPER 1 TO BUDGET FILE TERMS FROM KSTP 1 AND KPER 1

 FMI SETTING HEAD FOR KSTP 69 AND KPER 1 TO BINARY FILE HEADS FROM KSTP 1 AND KPER 1

 SFR-1 SETTING BUDGET TERMS FOR KSTP 69 AND KPER 1 TO BUDGET FILE TERMS FROM KSTP 1 AND KPER 1

 SFT PACKAGE (SFR-1) FLOW RATES   PERIOD      1   STEP       69
 ----------------------------------------------------------------------------------------
   NUMBER   CELLID                    RATE       NAME                                    
 ----------------------------------------------------------------------------------------
     1      (1,1,169)             21.929568      SFTREACH1                               
     2      (1,1,170)             21.270432      SFTREACH2                               
     3      (1,1,171)             0.0000000      SFTREACH3                               
     4      (1,1,172)             0.0000000      SFTREACH4                               
     5      (1,1,173)             0.0000000      SFTREACH5                               
     6      (1,1,174)             0.0000000      SFTREACH6                               
     7      (1,1,175)             0.0000000      SFTREACH7                               
     8      (1,1,176)             0.0000000      SFTREACH8                               
     9      (1,1,177)             0.0000000      SFTREACH9                               
     10     (1,1,178)             0.0000000      SFTREACH10                              
     11     (1,1,179)             0.0000000      SFTREACH11                              
     12     (1,1,180)             0.0000000      SFTREACH12                              
     13     (1,1,181)             0.0000000      SFTREACH13                              
     14     (1,1,182)             0.0000000      SFTREACH14                              
     15     (1,1,183)             0.0000000      SFTREACH15                              
     16     (1,1,184)             0.0000000      SFTREACH16                              
     17     (1,1,185)             0.0000000      SFTREACH17                              
     18     (1,1,186)             0.0000000      SFTREACH18                              
     19     (1,1,187)             0.0000000      SFTREACH19                              
     20     (1,1,188)             0.0000000      SFTREACH20                              
     21     (1,1,189)             0.0000000      SFTREACH21                              
     22     (1,1,190)             0.0000000      SFTREACH22                              
     23     (1,1,191)             0.0000000      SFTREACH23                              
     24     (1,1,192)             0.0000000      SFTREACH24                              
 ----------------------------------------------------------------------------------------




 SFR-1 PACKAGE - SUMMARY OF FLOWS FOR EACH CONTROL VOLUME   PERIOD      1   STEP       69
 ----------------------------------------------------------------------------------------------------------------------------------------------------------------------
                                                                                                                                                             PERCENT   
   NUMBER      INFLOW      OUTFLOW        GWF        RAINFALL   EVAPORATION     RUNOFF     EXT INFLOW  EXT OUTFLOW    STORAGE      CONSTANT     IN - OUT    DIFFERENCE 
 ----------------------------------------------------------------------------------------------------------------------------------------------------------------------
     1       0.0000      -21.270      -21.930       0.0000       0.0000       0.0000       43.200       0.0000       0.0000       0.0000      -7.10543E-15 -1.64477E-14
     2       21.270       0.0000      -21.270       0.0000       0.0000       0.0000       0.0000       0.0000       0.0000       0.0000       3.55271E-15  1.67026E-14
     3       0.0000       0.0000       0.0000       0.0000       0.0000       0.0000       0.0000       0.0000       0.0000       0.0000       0.0000       0.0000     
     4       0.0000       0.0000       0.0000       0.0000       0.0000       0.0000       0.0000       0.0000       0.0000       0.0000       0.0000       0.0000     
     5       0.0000       0.0000       0.0000       0.0000       0.0000       0.0000       0.0000       0.0000       0.0000       0.0000       0.0000       0.0000     
     6       0.0000       0.0000       0.0000       0.0000       0.0000       0.0000       0.0000       0.0000       0.0000       0.0000       0.0000       0.0000     
     7       0.0000       0.0000       0.0000       0.0000       0.0000       0.0000       0.0000       0.0000       0.0000       0.0000       0.0000       0.0000     
     8       0.0000       0.0000       0.0000       0.0000       0.0000       0.0000       0.0000       0.0000       0.0000       0.0000       0.0000       0.0000     
     9       0.0000       0.0000       0.0000       0.0000       0.0000       0.0000       0.0000       0.0000       0.0000       0.0000       0.0000       0.0000     
     10      0.0000       0.0000       0.0000       0.0000       0.0000       0.0000       0.0000       0.0000       0.0000       0.0000       0.0000       0.0000     
     11      0.0000       0.0000       0.0000       0.0000       0.0000       0.0000       0.0000       0.0000       0.0000       0.0000       0.0000       0.0000     
     12      0.0000       0.0000       0.0000       0.0000       0.0000       0.0000       0.0000       0.0000       0.0000       0.0000       0.0000       0.0000     
     13      0.0000       0.0000       0.0000       0.0000       0.0000       0.0000       0.0000       0.0000       0.0000       0.0000       0.0000       0.0000     
     14      0.0000       0.0000       0.0000       0.0000       0.0000       0.0000       0.0000       0.0000       0.0000       0.0000       0.0000       0.0000     
     15      0.0000       0.0000       0.0000       0.0000       0.0000       0.0000       0.0000       0.0000       0.0000       0.0000       0.0000       0.0000     
     16      0.0000       0.0000       0.0000       0.0000       0.0000       0.0000       0.0000       0.0000       0.0000       0.0000       0.0000       0.0000     
     17      0.0000       0.0000       0.0000       0.0000       0.0000       0.0000       0.0000       0.0000       0.0000       0.0000       0.0000       0.0000     
     18      0.0000       0.0000       0.0000       0.0000       0.0000       0.0000       0.0000       0.0000       0.0000       0.0000       0.0000       0.0000     
     19      0.0000       0.0000       0.0000       0.0000       0.0000       0.0000       0.0000       0.0000       0.0000       0.0000       0.0000       0.0000     
     20      0.0000       0.0000       0.0000       0.0000       0.0000       0.0000       0.0000       0.0000       0.0000       0.0000       0.0000       0.0000     
     21      0.0000       0.0000       0.0000       0.0000       0.0000       0.0000       0.0000       0.0000       0.0000       0.0000       0.0000       0.0000     
     22      0.0000       0.0000       0.0000       0.0000       0.0000       0.0000       0.0000       0.0000       0.0000       0.0000       0.0000       0.0000     
     23      0.0000       0.0000       0.0000       0.0000       0.0000       0.0000       0.0000       0.0000       0.0000       0.0000       0.0000       0.0000     
     24      0.0000       0.0000       0.0000       0.0000       0.0000       0.0000       0.0000       0.0000       0.0000       0.0000       0.0000       0.0000     
 ----------------------------------------------------------------------------------------------------------------------------------------------------------------------




  SFR-1 BUDGET FOR ENTIRE MODEL AT END OF TIME STEP   69, STRESS PERIOD   1
  ------------------------------------------------------------------------------

     CUMULATIVE SFR-1      M       RATES FOR THIS TIME STEP      M/T
     ------------------                 ------------------------

           IN:                                      IN:
           ---                                      ---
                 GWF =           0.0000                   GWF =           0.0000
            RAINFALL =           0.0000              RAINFALL =           0.0000
         EVAPORATION =           0.0000           EVAPORATION =           0.0000
              RUNOFF =           0.0000                RUNOFF =           0.0000
          EXT-INFLOW =       29808.0000            EXT-INFLOW =          43.2000
         EXT-OUTFLOW =           0.0000           EXT-OUTFLOW =           0.0000
             STORAGE =           0.0000               STORAGE =           0.0000
            CONSTANT =           0.0000              CONSTANT =           0.0000

            TOTAL IN =       29808.0000              TOTAL IN =          43.2000

          OUT:                                     OUT:
          ----                                     ----
                 GWF =       29808.0000                   GWF =          43.2000
            RAINFALL =           0.0000              RAINFALL =           0.0000
         EVAPORATION =           0.0000           EVAPORATION =           0.0000
              RUNOFF =           0.0000                RUNOFF =           0.0000
          EXT-INFLOW =           0.0000            EXT-INFLOW =           0.0000
         EXT-OUTFLOW =           0.0000           EXT-OUTFLOW =           0.0000
             STORAGE =       2.7756E-16               STORAGE =           0.0000
            CONSTANT =           0.0000              CONSTANT =           0.0000

           TOTAL OUT =       29808.0000             TOTAL OUT =          43.2000

            IN - OUT =           0.0000              IN - OUT =           0.0000

 PERCENT DISCREPANCY =           0.00     PERCENT DISCREPANCY =           0.00



  MASS BUDGET FOR ENTIRE MODEL AT END OF TIME STEP   69, STRESS PERIOD   1
  ---------------------------------------------------------------------------------------------------

     CUMULATIVE MASS      M       RATES FOR THIS TIME STEP      M/T          PACKAGE NAME    
     ------------------                 ------------------------                     ----------------

           IN:                                      IN:
           ---                                      ---
     STORAGE-AQUEOUS =       2.8051E-13       STORAGE-AQUEOUS =       5.5582E-16     MST             
               RCH-1 =           0.0000                 RCH-1 =           0.0000     SSM             
               CHD-1 =           0.0000                 CHD-1 =           0.0000     SSM             
     FLOW-CORRECTION =       5.8180E-06       FLOW-CORRECTION =       5.3875E-08                     
                 SFT =       29808.0000                   SFT =          43.2000     SFR-1           

            TOTAL IN =       29808.0000              TOTAL IN =          43.2000

          OUT:                                     OUT:
          ----                                     ----
     STORAGE-AQUEOUS =       29807.9997       STORAGE-AQUEOUS =          43.2000     MST             
               RCH-1 =           0.0000                 RCH-1 =           0.0000     SSM             
               CHD-1 =       7.6583E-59                 CHD-1 =       5.0988E-60     SSM             
     FLOW-CORRECTION =       3.2155E-04       FLOW-CORRECTION =       8.4736E-07                     
                 SFT =           0.0000                   SFT =           0.0000     SFR-1           

           TOTAL OUT =       29808.0000             TOTAL OUT =          43.2000

            IN - OUT =       9.1397E-06              IN - OUT =      -1.3500E-12

 PERCENT DISCREPANCY =           0.00     PERCENT DISCREPANCY =          -0.00




         TIME SUMMARY AT END OF TIME STEP   69 IN STRESS PERIOD    1
                    SECONDS     MINUTES      HOURS       DAYS        YEARS
                    -----------------------------------------------------------
   TIME STEP LENGTH 8.64000E+05  14400.      240.00      10.000     2.73785E-02
 STRESS PERIOD TIME 5.96160E+07 9.93600E+05  16560.      690.00      1.8891    
         TOTAL TIME 5.96160E+07 9.93600E+05  16560.      690.00      1.8891    


end timestep


start timestep kper="1" kstp="70" mode="normal"


 FMI SETTING BUDGET TERMS FOR KSTP 70 AND KPER 1 TO BUDGET FILE TERMS FROM KSTP 1 AND KPER 1

 FMI SETTING HEAD FOR KSTP 70 AND KPER 1 TO BINARY FILE HEADS FROM KSTP 1 AND KPER 1

 SFR-1 SETTING BUDGET TERMS FOR KSTP 70 AND KPER 1 TO BUDGET FILE TERMS FROM KSTP 1 AND KPER 1

 SFT PACKAGE (SFR-1) FLOW RATES   PERIOD      1   STEP       70
 ----------------------------------------------------------------------------------------
   NUMBER   CELLID                    RATE       NAME                                    
 ----------------------------------------------------------------------------------------
     1      (1,1,169)             21.929568      SFTREACH1                               
     2      (1,1,170)             21.270432      SFTREACH2                               
     3      (1,1,171)             0.0000000      SFTREACH3                               
     4      (1,1,172)             0.0000000      SFTREACH4                               
     5      (1,1,173)             0.0000000      SFTREACH5                               
     6      (1,1,174)             0.0000000      SFTREACH6                               
     7      (1,1,175)             0.0000000      SFTREACH7                               
     8      (1,1,176)             0.0000000      SFTREACH8                               
     9      (1,1,177)             0.0000000      SFTREACH9                               
     10     (1,1,178)             0.0000000      SFTREACH10                              
     11     (1,1,179)             0.0000000      SFTREACH11                              
     12     (1,1,180)             0.0000000      SFTREACH12                              
     13     (1,1,181)             0.0000000      SFTREACH13                              
     14     (1,1,182)             0.0000000      SFTREACH14                              
     15     (1,1,183)             0.0000000      SFTREACH15                              
     16     (1,1,184)             0.0000000      SFTREACH16                              
     17     (1,1,185)             0.0000000      SFTREACH17                              
     18     (1,1,186)             0.0000000      SFTREACH18                              
     19     (1,1,187)             0.0000000      SFTREACH19                              
     20     (1,1,188)             0.0000000      SFTREACH20                              
     21     (1,1,189)             0.0000000      SFTREACH21                              
     22     (1,1,190)             0.0000000      SFTREACH22                              
     23     (1,1,191)             0.0000000      SFTREACH23                              
     24     (1,1,192)             0.0000000      SFTREACH24                              
 ----------------------------------------------------------------------------------------




 SFR-1 PACKAGE - SUMMARY OF FLOWS FOR EACH CONTROL VOLUME   PERIOD      1   STEP       70
 ----------------------------------------------------------------------------------------------------------------------------------------------------------------------
                                                                                                                                                             PERCENT   
   NUMBER      INFLOW      OUTFLOW        GWF        RAINFALL   EVAPORATION     RUNOFF     EXT INFLOW  EXT OUTFLOW    STORAGE      CONSTANT     IN - OUT    DIFFERENCE 
 ----------------------------------------------------------------------------------------------------------------------------------------------------------------------
     1       0.0000      -21.270      -21.930       0.0000       0.0000       0.0000       43.200       0.0000       0.0000       0.0000      -7.10543E-15 -1.64477E-14
     2       21.270       0.0000      -21.270       0.0000       0.0000       0.0000       0.0000       0.0000       0.0000       0.0000       3.55271E-15  1.67026E-14
     3       0.0000       0.0000       0.0000       0.0000       0.0000       0.0000       0.0000       0.0000       0.0000       0.0000       0.0000       0.0000     
     4       0.0000       0.0000       0.0000       0.0000       0.0000       0.0000       0.0000       0.0000       0.0000       0.0000       0.0000       0.0000     
     5       0.0000       0.0000       0.0000       0.0000       0.0000       0.0000       0.0000       0.0000       0.0000       0.0000       0.0000       0.0000     
     6       0.0000       0.0000       0.0000       0.0000       0.0000       0.0000       0.0000       0.0000       0.0000       0.0000       0.0000       0.0000     
     7       0.0000       0.0000       0.0000       0.0000       0.0000       0.0000       0.0000       0.0000       0.0000       0.0000       0.0000       0.0000     
     8       0.0000       0.0000       0.0000       0.0000       0.0000       0.0000       0.0000       0.0000       0.0000       0.0000       0.0000       0.0000     
     9       0.0000       0.0000       0.0000       0.0000       0.0000       0.0000       0.0000       0.0000       0.0000       0.0000       0.0000       0.0000     
     10      0.0000       0.0000       0.0000       0.0000       0.0000       0.0000       0.0000       0.0000       0.0000       0.0000       0.0000       0.0000     
     11      0.0000       0.0000       0.0000       0.0000       0.0000       0.0000       0.0000       0.0000       0.0000       0.0000       0.0000       0.0000     
     12      0.0000       0.0000       0.0000       0.0000       0.0000       0.0000       0.0000       0.0000       0.0000       0.0000       0.0000       0.0000     
     13      0.0000       0.0000       0.0000       0.0000       0.0000       0.0000       0.0000       0.0000       0.0000       0.0000       0.0000       0.0000     
     14      0.0000       0.0000       0.0000       0.0000       0.0000       0.0000       0.0000       0.0000       0.0000       0.0000       0.0000       0.0000     
     15      0.0000       0.0000       0.0000       0.0000       0.0000       0.0000       0.0000       0.0000       0.0000       0.0000       0.0000       0.0000     
     16      0.0000       0.0000       0.0000       0.0000       0.0000       0.0000       0.0000       0.0000       0.0000       0.0000       0.0000       0.0000     
     17      0.0000       0.0000       0.0000       0.0000       0.0000       0.0000       0.0000       0.0000       0.0000       0.0000       0.0000       0.0000     
     18      0.0000       0.0000       0.0000       0.0000       0.0000       0.0000       0.0000       0.0000       0.0000       0.0000       0.0000       0.0000     
     19      0.0000       0.0000       0.0000       0.0000       0.0000       0.0000       0.0000       0.0000       0.0000       0.0000       0.0000       0.0000     
     20      0.0000       0.0000       0.0000       0.0000       0.0000       0.0000       0.0000       0.0000       0.0000       0.0000       0.0000       0.0000     
     21      0.0000       0.0000       0.0000       0.0000       0.0000       0.0000       0.0000       0.0000       0.0000       0.0000       0.0000       0.0000     
     22      0.0000       0.0000       0.0000       0.0000       0.0000       0.0000       0.0000       0.0000       0.0000       0.0000       0.0000       0.0000     
     23      0.0000       0.0000       0.0000       0.0000       0.0000       0.0000       0.0000       0.0000       0.0000       0.0000       0.0000       0.0000     
     24      0.0000       0.0000       0.0000       0.0000       0.0000       0.0000       0.0000       0.0000       0.0000       0.0000       0.0000       0.0000     
 ----------------------------------------------------------------------------------------------------------------------------------------------------------------------



 CONCENTRATION WILL BE SAVED ON UNIT 1024 AT END OF TIME STEP   70, STRESS PERIOD    1


  SFR-1 BUDGET FOR ENTIRE MODEL AT END OF TIME STEP   70, STRESS PERIOD   1
  ------------------------------------------------------------------------------

     CUMULATIVE SFR-1      M       RATES FOR THIS TIME STEP      M/T
     ------------------                 ------------------------

           IN:                                      IN:
           ---                                      ---
                 GWF =           0.0000                   GWF =           0.0000
            RAINFALL =           0.0000              RAINFALL =           0.0000
         EVAPORATION =           0.0000           EVAPORATION =           0.0000
              RUNOFF =           0.0000                RUNOFF =           0.0000
          EXT-INFLOW =       30240.0000            EXT-INFLOW =          43.2000
         EXT-OUTFLOW =           0.0000           EXT-OUTFLOW =           0.0000
             STORAGE =           0.0000               STORAGE =           0.0000
            CONSTANT =           0.0000              CONSTANT =           0.0000

            TOTAL IN =       30240.0000              TOTAL IN =          43.2000

          OUT:                                     OUT:
          ----                                     ----
                 GWF =       30240.0000                   GWF =          43.2000
            RAINFALL =           0.0000              RAINFALL =           0.0000
         EVAPORATION =           0.0000           EVAPORATION =           0.0000
              RUNOFF =           0.0000                RUNOFF =           0.0000
          EXT-INFLOW =           0.0000            EXT-INFLOW =           0.0000
         EXT-OUTFLOW =           0.0000           EXT-OUTFLOW =           0.0000
             STORAGE =       2.7756E-16               STORAGE =           0.0000
            CONSTANT =           0.0000              CONSTANT =           0.0000

           TOTAL OUT =       30240.0000             TOTAL OUT =          43.2000

            IN - OUT =           0.0000              IN - OUT =           0.0000

 PERCENT DISCREPANCY =           0.00     PERCENT DISCREPANCY =           0.00



  MASS BUDGET FOR ENTIRE MODEL AT END OF TIME STEP   70, STRESS PERIOD   1
  ---------------------------------------------------------------------------------------------------

     CUMULATIVE MASS      M       RATES FOR THIS TIME STEP      M/T          PACKAGE NAME    
     ------------------                 ------------------------                     ----------------

           IN:                                      IN:
           ---                                      ---
     STORAGE-AQUEOUS =       2.8607E-13       STORAGE-AQUEOUS =       5.5582E-16     MST             
               RCH-1 =           0.0000                 RCH-1 =           0.0000     SSM             
               CHD-1 =           0.0000                 CHD-1 =           0.0000     SSM             
     FLOW-CORRECTION =       6.4080E-06       FLOW-CORRECTION =       5.9007E-08                     
                 SFT =       30240.0000                   SFT =          43.2000     SFR-1           

            TOTAL IN =       30240.0000              TOTAL IN =          43.2000

          OUT:                                     OUT:
          ----                                     ----
     STORAGE-AQUEOUS =       30239.9997       STORAGE-AQUEOUS =          43.2000     MST             
               RCH-1 =           0.0000                 RCH-1 =           0.0000     SSM             
               CHD-1 =       2.2661E-58                 CHD-1 =       1.5002E-59     SSM             
     FLOW-CORRECTION =       3.3012E-04       FLOW-CORRECTION =       8.5637E-07                     
                 SFT =           0.0000                   SFT =           0.0000     SFR-1           

           TOTAL OUT =       30240.0000             TOTAL OUT =          43.2000

            IN - OUT =       9.1398E-06              IN - OUT =       2.9914E-12

 PERCENT DISCREPANCY =           0.00     PERCENT DISCREPANCY =           0.00




         TIME SUMMARY AT END OF TIME STEP   70 IN STRESS PERIOD    1
                    SECONDS     MINUTES      HOURS       DAYS        YEARS
                    -----------------------------------------------------------
   TIME STEP LENGTH 8.64000E+05  14400.      240.00      10.000     2.73785E-02
 STRESS PERIOD TIME 6.04800E+07 1.00800E+06  16800.      700.00      1.9165    
         TOTAL TIME 6.04800E+07 1.00800E+06  16800.      700.00      1.9165    


end timestep


start timestep kper="1" kstp="71" mode="normal"


 FMI SETTING BUDGET TERMS FOR KSTP 71 AND KPER 1 TO BUDGET FILE TERMS FROM KSTP 1 AND KPER 1

 FMI SETTING HEAD FOR KSTP 71 AND KPER 1 TO BINARY FILE HEADS FROM KSTP 1 AND KPER 1

 SFR-1 SETTING BUDGET TERMS FOR KSTP 71 AND KPER 1 TO BUDGET FILE TERMS FROM KSTP 1 AND KPER 1

 SFT PACKAGE (SFR-1) FLOW RATES   PERIOD      1   STEP       71
 ----------------------------------------------------------------------------------------
   NUMBER   CELLID                    RATE       NAME                                    
 ----------------------------------------------------------------------------------------
     1      (1,1,169)             21.929568      SFTREACH1                               
     2      (1,1,170)             21.270432      SFTREACH2                               
     3      (1,1,171)             0.0000000      SFTREACH3                               
     4      (1,1,172)             0.0000000      SFTREACH4                               
     5      (1,1,173)             0.0000000      SFTREACH5                               
     6      (1,1,174)             0.0000000      SFTREACH6                               
     7      (1,1,175)             0.0000000      SFTREACH7                               
     8      (1,1,176)             0.0000000      SFTREACH8                               
     9      (1,1,177)             0.0000000      SFTREACH9                               
     10     (1,1,178)             0.0000000      SFTREACH10                              
     11     (1,1,179)             0.0000000      SFTREACH11                              
     12     (1,1,180)             0.0000000      SFTREACH12                              
     13     (1,1,181)             0.0000000      SFTREACH13                              
     14     (1,1,182)             0.0000000      SFTREACH14                              
     15     (1,1,183)             0.0000000      SFTREACH15                              
     16     (1,1,184)             0.0000000      SFTREACH16                              
     17     (1,1,185)             0.0000000      SFTREACH17                              
     18     (1,1,186)             0.0000000      SFTREACH18                              
     19     (1,1,187)             0.0000000      SFTREACH19                              
     20     (1,1,188)             0.0000000      SFTREACH20                              
     21     (1,1,189)             0.0000000      SFTREACH21                              
     22     (1,1,190)             0.0000000      SFTREACH22                              
     23     (1,1,191)             0.0000000      SFTREACH23                              
     24     (1,1,192)             0.0000000      SFTREACH24                              
 ----------------------------------------------------------------------------------------




 SFR-1 PACKAGE - SUMMARY OF FLOWS FOR EACH CONTROL VOLUME   PERIOD      1   STEP       71
 ----------------------------------------------------------------------------------------------------------------------------------------------------------------------
                                                                                                                                                             PERCENT   
   NUMBER      INFLOW      OUTFLOW        GWF        RAINFALL   EVAPORATION     RUNOFF     EXT INFLOW  EXT OUTFLOW    STORAGE      CONSTANT     IN - OUT    DIFFERENCE 
 ----------------------------------------------------------------------------------------------------------------------------------------------------------------------
     1       0.0000      -21.270      -21.930       0.0000       0.0000       0.0000       43.200       0.0000       0.0000       0.0000      -7.10543E-15 -1.64477E-14
     2       21.270       0.0000      -21.270       0.0000       0.0000       0.0000       0.0000       0.0000       0.0000       0.0000       3.55271E-15  1.67026E-14
     3       0.0000       0.0000       0.0000       0.0000       0.0000       0.0000       0.0000       0.0000       0.0000       0.0000       0.0000       0.0000     
     4       0.0000       0.0000       0.0000       0.0000       0.0000       0.0000       0.0000       0.0000       0.0000       0.0000       0.0000       0.0000     
     5       0.0000       0.0000       0.0000       0.0000       0.0000       0.0000       0.0000       0.0000       0.0000       0.0000       0.0000       0.0000     
     6       0.0000       0.0000       0.0000       0.0000       0.0000       0.0000       0.0000       0.0000       0.0000       0.0000       0.0000       0.0000     
     7       0.0000       0.0000       0.0000       0.0000       0.0000       0.0000       0.0000       0.0000       0.0000       0.0000       0.0000       0.0000     
     8       0.0000       0.0000       0.0000       0.0000       0.0000       0.0000       0.0000       0.0000       0.0000       0.0000       0.0000       0.0000     
     9       0.0000       0.0000       0.0000       0.0000       0.0000       0.0000       0.0000       0.0000       0.0000       0.0000       0.0000       0.0000     
     10      0.0000       0.0000       0.0000       0.0000       0.0000       0.0000       0.0000       0.0000       0.0000       0.0000       0.0000       0.0000     
     11      0.0000       0.0000       0.0000       0.0000       0.0000       0.0000       0.0000       0.0000       0.0000       0.0000       0.0000       0.0000     
     12      0.0000       0.0000       0.0000       0.0000       0.0000       0.0000       0.0000       0.0000       0.0000       0.0000       0.0000       0.0000     
     13      0.0000       0.0000       0.0000       0.0000       0.0000       0.0000       0.0000       0.0000       0.0000       0.0000       0.0000       0.0000     
     14      0.0000       0.0000       0.0000       0.0000       0.0000       0.0000       0.0000       0.0000       0.0000       0.0000       0.0000       0.0000     
     15      0.0000       0.0000       0.0000       0.0000       0.0000       0.0000       0.0000       0.0000       0.0000       0.0000       0.0000       0.0000     
     16      0.0000       0.0000       0.0000       0.0000       0.0000       0.0000       0.0000       0.0000       0.0000       0.0000       0.0000       0.0000     
     17      0.0000       0.0000       0.0000       0.0000       0.0000       0.0000       0.0000       0.0000       0.0000       0.0000       0.0000       0.0000     
     18      0.0000       0.0000       0.0000       0.0000       0.0000       0.0000       0.0000       0.0000       0.0000       0.0000       0.0000       0.0000     
     19      0.0000       0.0000       0.0000       0.0000       0.0000       0.0000       0.0000       0.0000       0.0000       0.0000       0.0000       0.0000     
     20      0.0000       0.0000       0.0000       0.0000       0.0000       0.0000       0.0000       0.0000       0.0000       0.0000       0.0000       0.0000     
     21      0.0000       0.0000       0.0000       0.0000       0.0000       0.0000       0.0000       0.0000       0.0000       0.0000       0.0000       0.0000     
     22      0.0000       0.0000       0.0000       0.0000       0.0000       0.0000       0.0000       0.0000       0.0000       0.0000       0.0000       0.0000     
     23      0.0000       0.0000       0.0000       0.0000       0.0000       0.0000       0.0000       0.0000       0.0000       0.0000       0.0000       0.0000     
     24      0.0000       0.0000       0.0000       0.0000       0.0000       0.0000       0.0000       0.0000       0.0000       0.0000       0.0000       0.0000     
 ----------------------------------------------------------------------------------------------------------------------------------------------------------------------




  SFR-1 BUDGET FOR ENTIRE MODEL AT END OF TIME STEP   71, STRESS PERIOD   1
  ------------------------------------------------------------------------------

     CUMULATIVE SFR-1      M       RATES FOR THIS TIME STEP      M/T
     ------------------                 ------------------------

           IN:                                      IN:
           ---                                      ---
                 GWF =           0.0000                   GWF =           0.0000
            RAINFALL =           0.0000              RAINFALL =           0.0000
         EVAPORATION =           0.0000           EVAPORATION =           0.0000
              RUNOFF =           0.0000                RUNOFF =           0.0000
          EXT-INFLOW =       30672.0000            EXT-INFLOW =          43.2000
         EXT-OUTFLOW =           0.0000           EXT-OUTFLOW =           0.0000
             STORAGE =           0.0000               STORAGE =           0.0000
            CONSTANT =           0.0000              CONSTANT =           0.0000

            TOTAL IN =       30672.0000              TOTAL IN =          43.2000

          OUT:                                     OUT:
          ----                                     ----
                 GWF =       30672.0000                   GWF =          43.2000
            RAINFALL =           0.0000              RAINFALL =           0.0000
         EVAPORATION =           0.0000           EVAPORATION =           0.0000
              RUNOFF =           0.0000                RUNOFF =           0.0000
          EXT-INFLOW =           0.0000            EXT-INFLOW =           0.0000
         EXT-OUTFLOW =           0.0000           EXT-OUTFLOW =           0.0000
             STORAGE =       2.7756E-16               STORAGE =           0.0000
            CONSTANT =           0.0000              CONSTANT =           0.0000

           TOTAL OUT =       30672.0000             TOTAL OUT =          43.2000

            IN - OUT =           0.0000              IN - OUT =           0.0000

 PERCENT DISCREPANCY =           0.00     PERCENT DISCREPANCY =           0.00



  MASS BUDGET FOR ENTIRE MODEL AT END OF TIME STEP   71, STRESS PERIOD   1
  ---------------------------------------------------------------------------------------------------

     CUMULATIVE MASS      M       RATES FOR THIS TIME STEP      M/T          PACKAGE NAME    
     ------------------                 ------------------------                     ----------------

           IN:                                      IN:
           ---                                      ---
     STORAGE-AQUEOUS =       2.9163E-13       STORAGE-AQUEOUS =       5.5582E-16     MST             
               RCH-1 =           0.0000                 RCH-1 =           0.0000     SSM             
               CHD-1 =           0.0000                 CHD-1 =           0.0000     SSM             
     FLOW-CORRECTION =       7.0532E-06       FLOW-CORRECTION =       6.4517E-08                     
                 SFT =       30672.0000                   SFT =          43.2000     SFR-1           

            TOTAL IN =       30672.0000              TOTAL IN =          43.2000

          OUT:                                     OUT:
          ----                                     ----
     STORAGE-AQUEOUS =       30671.9997       STORAGE-AQUEOUS =          43.2000     MST             
               RCH-1 =           0.0000                 RCH-1 =           0.0000     SSM             
               CHD-1 =       6.6322E-58                 CHD-1 =       4.3661E-59     SSM             
     FLOW-CORRECTION =       3.3877E-04       FLOW-CORRECTION =       8.6530E-07                     
                 SFT =           0.0000                   SFT =           0.0000     SFR-1           

           TOTAL OUT =       30672.0000             TOTAL OUT =          43.2000

            IN - OUT =       9.1398E-06              IN - OUT =       4.9099E-12

 PERCENT DISCREPANCY =           0.00     PERCENT DISCREPANCY =           0.00




         TIME SUMMARY AT END OF TIME STEP   71 IN STRESS PERIOD    1
                    SECONDS     MINUTES      HOURS       DAYS        YEARS
                    -----------------------------------------------------------
   TIME STEP LENGTH 8.64000E+05  14400.      240.00      10.000     2.73785E-02
 STRESS PERIOD TIME 6.13440E+07 1.02240E+06  17040.      710.00      1.9439    
         TOTAL TIME 6.13440E+07 1.02240E+06  17040.      710.00      1.9439    


end timestep


start timestep kper="1" kstp="72" mode="normal"


 FMI SETTING BUDGET TERMS FOR KSTP 72 AND KPER 1 TO BUDGET FILE TERMS FROM KSTP 1 AND KPER 1

 FMI SETTING HEAD FOR KSTP 72 AND KPER 1 TO BINARY FILE HEADS FROM KSTP 1 AND KPER 1

 SFR-1 SETTING BUDGET TERMS FOR KSTP 72 AND KPER 1 TO BUDGET FILE TERMS FROM KSTP 1 AND KPER 1

 SFT PACKAGE (SFR-1) FLOW RATES   PERIOD      1   STEP       72
 ----------------------------------------------------------------------------------------
   NUMBER   CELLID                    RATE       NAME                                    
 ----------------------------------------------------------------------------------------
     1      (1,1,169)             21.929568      SFTREACH1                               
     2      (1,1,170)             21.270432      SFTREACH2                               
     3      (1,1,171)             0.0000000      SFTREACH3                               
     4      (1,1,172)             0.0000000      SFTREACH4                               
     5      (1,1,173)             0.0000000      SFTREACH5                               
     6      (1,1,174)             0.0000000      SFTREACH6                               
     7      (1,1,175)             0.0000000      SFTREACH7                               
     8      (1,1,176)             0.0000000      SFTREACH8                               
     9      (1,1,177)             0.0000000      SFTREACH9                               
     10     (1,1,178)             0.0000000      SFTREACH10                              
     11     (1,1,179)             0.0000000      SFTREACH11                              
     12     (1,1,180)             0.0000000      SFTREACH12                              
     13     (1,1,181)             0.0000000      SFTREACH13                              
     14     (1,1,182)             0.0000000      SFTREACH14                              
     15     (1,1,183)             0.0000000      SFTREACH15                              
     16     (1,1,184)             0.0000000      SFTREACH16                              
     17     (1,1,185)             0.0000000      SFTREACH17                              
     18     (1,1,186)             0.0000000      SFTREACH18                              
     19     (1,1,187)             0.0000000      SFTREACH19                              
     20     (1,1,188)             0.0000000      SFTREACH20                              
     21     (1,1,189)             0.0000000      SFTREACH21                              
     22     (1,1,190)             0.0000000      SFTREACH22                              
     23     (1,1,191)             0.0000000      SFTREACH23                              
     24     (1,1,192)             0.0000000      SFTREACH24                              
 ----------------------------------------------------------------------------------------




 SFR-1 PACKAGE - SUMMARY OF FLOWS FOR EACH CONTROL VOLUME   PERIOD      1   STEP       72
 ----------------------------------------------------------------------------------------------------------------------------------------------------------------------
                                                                                                                                                             PERCENT   
   NUMBER      INFLOW      OUTFLOW        GWF        RAINFALL   EVAPORATION     RUNOFF     EXT INFLOW  EXT OUTFLOW    STORAGE      CONSTANT     IN - OUT    DIFFERENCE 
 ----------------------------------------------------------------------------------------------------------------------------------------------------------------------
     1       0.0000      -21.270      -21.930       0.0000       0.0000       0.0000       43.200       0.0000       0.0000       0.0000      -7.10543E-15 -1.64477E-14
     2       21.270       0.0000      -21.270       0.0000       0.0000       0.0000       0.0000       0.0000       0.0000       0.0000       3.55271E-15  1.67026E-14
     3       0.0000       0.0000       0.0000       0.0000       0.0000       0.0000       0.0000       0.0000       0.0000       0.0000       0.0000       0.0000     
     4       0.0000       0.0000       0.0000       0.0000       0.0000       0.0000       0.0000       0.0000       0.0000       0.0000       0.0000       0.0000     
     5       0.0000       0.0000       0.0000       0.0000       0.0000       0.0000       0.0000       0.0000       0.0000       0.0000       0.0000       0.0000     
     6       0.0000       0.0000       0.0000       0.0000       0.0000       0.0000       0.0000       0.0000       0.0000       0.0000       0.0000       0.0000     
     7       0.0000       0.0000       0.0000       0.0000       0.0000       0.0000       0.0000       0.0000       0.0000       0.0000       0.0000       0.0000     
     8       0.0000       0.0000       0.0000       0.0000       0.0000       0.0000       0.0000       0.0000       0.0000       0.0000       0.0000       0.0000     
     9       0.0000       0.0000       0.0000       0.0000       0.0000       0.0000       0.0000       0.0000       0.0000       0.0000       0.0000       0.0000     
     10      0.0000       0.0000       0.0000       0.0000       0.0000       0.0000       0.0000       0.0000       0.0000       0.0000       0.0000       0.0000     
     11      0.0000       0.0000       0.0000       0.0000       0.0000       0.0000       0.0000       0.0000       0.0000       0.0000       0.0000       0.0000     
     12      0.0000       0.0000       0.0000       0.0000       0.0000       0.0000       0.0000       0.0000       0.0000       0.0000       0.0000       0.0000     
     13      0.0000       0.0000       0.0000       0.0000       0.0000       0.0000       0.0000       0.0000       0.0000       0.0000       0.0000       0.0000     
     14      0.0000       0.0000       0.0000       0.0000       0.0000       0.0000       0.0000       0.0000       0.0000       0.0000       0.0000       0.0000     
     15      0.0000       0.0000       0.0000       0.0000       0.0000       0.0000       0.0000       0.0000       0.0000       0.0000       0.0000       0.0000     
     16      0.0000       0.0000       0.0000       0.0000       0.0000       0.0000       0.0000       0.0000       0.0000       0.0000       0.0000       0.0000     
     17      0.0000       0.0000       0.0000       0.0000       0.0000       0.0000       0.0000       0.0000       0.0000       0.0000       0.0000       0.0000     
     18      0.0000       0.0000       0.0000       0.0000       0.0000       0.0000       0.0000       0.0000       0.0000       0.0000       0.0000       0.0000     
     19      0.0000       0.0000       0.0000       0.0000       0.0000       0.0000       0.0000       0.0000       0.0000       0.0000       0.0000       0.0000     
     20      0.0000       0.0000       0.0000       0.0000       0.0000       0.0000       0.0000       0.0000       0.0000       0.0000       0.0000       0.0000     
     21      0.0000       0.0000       0.0000       0.0000       0.0000       0.0000       0.0000       0.0000       0.0000       0.0000       0.0000       0.0000     
     22      0.0000       0.0000       0.0000       0.0000       0.0000       0.0000       0.0000       0.0000       0.0000       0.0000       0.0000       0.0000     
     23      0.0000       0.0000       0.0000       0.0000       0.0000       0.0000       0.0000       0.0000       0.0000       0.0000       0.0000       0.0000     
     24      0.0000       0.0000       0.0000       0.0000       0.0000       0.0000       0.0000       0.0000       0.0000       0.0000       0.0000       0.0000     
 ----------------------------------------------------------------------------------------------------------------------------------------------------------------------




  SFR-1 BUDGET FOR ENTIRE MODEL AT END OF TIME STEP   72, STRESS PERIOD   1
  ------------------------------------------------------------------------------

     CUMULATIVE SFR-1      M       RATES FOR THIS TIME STEP      M/T
     ------------------                 ------------------------

           IN:                                      IN:
           ---                                      ---
                 GWF =           0.0000                   GWF =           0.0000
            RAINFALL =           0.0000              RAINFALL =           0.0000
         EVAPORATION =           0.0000           EVAPORATION =           0.0000
              RUNOFF =           0.0000                RUNOFF =           0.0000
          EXT-INFLOW =       31104.0000            EXT-INFLOW =          43.2000
         EXT-OUTFLOW =           0.0000           EXT-OUTFLOW =           0.0000
             STORAGE =           0.0000               STORAGE =           0.0000
            CONSTANT =           0.0000              CONSTANT =           0.0000

            TOTAL IN =       31104.0000              TOTAL IN =          43.2000

          OUT:                                     OUT:
          ----                                     ----
                 GWF =       31104.0000                   GWF =          43.2000
            RAINFALL =           0.0000              RAINFALL =           0.0000
         EVAPORATION =           0.0000           EVAPORATION =           0.0000
              RUNOFF =           0.0000                RUNOFF =           0.0000
          EXT-INFLOW =           0.0000            EXT-INFLOW =           0.0000
         EXT-OUTFLOW =           0.0000           EXT-OUTFLOW =           0.0000
             STORAGE =       2.7756E-16               STORAGE =           0.0000
            CONSTANT =           0.0000              CONSTANT =           0.0000

           TOTAL OUT =       31104.0000             TOTAL OUT =          43.2000

            IN - OUT =           0.0000              IN - OUT =           0.0000

 PERCENT DISCREPANCY =           0.00     PERCENT DISCREPANCY =           0.00



  MASS BUDGET FOR ENTIRE MODEL AT END OF TIME STEP   72, STRESS PERIOD   1
  ---------------------------------------------------------------------------------------------------

     CUMULATIVE MASS      M       RATES FOR THIS TIME STEP      M/T          PACKAGE NAME    
     ------------------                 ------------------------                     ----------------

           IN:                                      IN:
           ---                                      ---
     STORAGE-AQUEOUS =       2.9719E-13       STORAGE-AQUEOUS =       5.5582E-16     MST             
               RCH-1 =           0.0000                 RCH-1 =           0.0000     SSM             
               CHD-1 =           0.0000                 CHD-1 =           0.0000     SSM             
     FLOW-CORRECTION =       7.7574E-06       FLOW-CORRECTION =       7.0421E-08                     
                 SFT =       31104.0000                   SFT =          43.2000     SFR-1           

            TOTAL IN =       31104.0000              TOTAL IN =          43.2000

          OUT:                                     OUT:
          ----                                     ----
     STORAGE-AQUEOUS =       31103.9997       STORAGE-AQUEOUS =          43.2000     MST             
               RCH-1 =           0.0000                 RCH-1 =           0.0000     SSM             
               CHD-1 =       1.9203E-57                 CHD-1 =       1.2571E-58     SSM             
     FLOW-CORRECTION =       3.4751E-04       FLOW-CORRECTION =       8.7418E-07                     
                 SFT =           0.0000                   SFT =           0.0000     SFR-1           

           TOTAL OUT =       31104.0000             TOTAL OUT =          43.2000

            IN - OUT =       9.1399E-06              IN - OUT =       5.9046E-12

 PERCENT DISCREPANCY =           0.00     PERCENT DISCREPANCY =           0.00




         TIME SUMMARY AT END OF TIME STEP   72 IN STRESS PERIOD    1
                    SECONDS     MINUTES      HOURS       DAYS        YEARS
                    -----------------------------------------------------------
   TIME STEP LENGTH 8.64000E+05  14400.      240.00      10.000     2.73785E-02
 STRESS PERIOD TIME 6.22080E+07 1.03680E+06  17280.      720.00      1.9713    
         TOTAL TIME 6.22080E+07 1.03680E+06  17280.      720.00      1.9713    


end timestep


start timestep kper="1" kstp="73" mode="normal"


 FMI SETTING BUDGET TERMS FOR KSTP 73 AND KPER 1 TO BUDGET FILE TERMS FROM KSTP 1 AND KPER 1

 FMI SETTING HEAD FOR KSTP 73 AND KPER 1 TO BINARY FILE HEADS FROM KSTP 1 AND KPER 1

 SFR-1 SETTING BUDGET TERMS FOR KSTP 73 AND KPER 1 TO BUDGET FILE TERMS FROM KSTP 1 AND KPER 1

 SFT PACKAGE (SFR-1) FLOW RATES   PERIOD      1   STEP       73
 ----------------------------------------------------------------------------------------
   NUMBER   CELLID                    RATE       NAME                                    
 ----------------------------------------------------------------------------------------
     1      (1,1,169)             21.929568      SFTREACH1                               
     2      (1,1,170)             21.270432      SFTREACH2                               
     3      (1,1,171)             0.0000000      SFTREACH3                               
     4      (1,1,172)             0.0000000      SFTREACH4                               
     5      (1,1,173)             0.0000000      SFTREACH5                               
     6      (1,1,174)             0.0000000      SFTREACH6                               
     7      (1,1,175)             0.0000000      SFTREACH7                               
     8      (1,1,176)             0.0000000      SFTREACH8                               
     9      (1,1,177)             0.0000000      SFTREACH9                               
     10     (1,1,178)             0.0000000      SFTREACH10                              
     11     (1,1,179)             0.0000000      SFTREACH11                              
     12     (1,1,180)             0.0000000      SFTREACH12                              
     13     (1,1,181)             0.0000000      SFTREACH13                              
     14     (1,1,182)             0.0000000      SFTREACH14                              
     15     (1,1,183)             0.0000000      SFTREACH15                              
     16     (1,1,184)             0.0000000      SFTREACH16                              
     17     (1,1,185)             0.0000000      SFTREACH17                              
     18     (1,1,186)             0.0000000      SFTREACH18                              
     19     (1,1,187)             0.0000000      SFTREACH19                              
     20     (1,1,188)             0.0000000      SFTREACH20                              
     21     (1,1,189)             0.0000000      SFTREACH21                              
     22     (1,1,190)             0.0000000      SFTREACH22                              
     23     (1,1,191)             0.0000000      SFTREACH23                              
     24     (1,1,192)             0.0000000      SFTREACH24                              
 ----------------------------------------------------------------------------------------




 SFR-1 PACKAGE - SUMMARY OF FLOWS FOR EACH CONTROL VOLUME   PERIOD      1   STEP       73
 ----------------------------------------------------------------------------------------------------------------------------------------------------------------------
                                                                                                                                                             PERCENT   
   NUMBER      INFLOW      OUTFLOW        GWF        RAINFALL   EVAPORATION     RUNOFF     EXT INFLOW  EXT OUTFLOW    STORAGE      CONSTANT     IN - OUT    DIFFERENCE 
 ----------------------------------------------------------------------------------------------------------------------------------------------------------------------
     1       0.0000      -21.270      -21.930       0.0000       0.0000       0.0000       43.200       0.0000       0.0000       0.0000      -7.10543E-15 -1.64477E-14
     2       21.270       0.0000      -21.270       0.0000       0.0000       0.0000       0.0000       0.0000       0.0000       0.0000       3.55271E-15  1.67026E-14
     3       0.0000       0.0000       0.0000       0.0000       0.0000       0.0000       0.0000       0.0000       0.0000       0.0000       0.0000       0.0000     
     4       0.0000       0.0000       0.0000       0.0000       0.0000       0.0000       0.0000       0.0000       0.0000       0.0000       0.0000       0.0000     
     5       0.0000       0.0000       0.0000       0.0000       0.0000       0.0000       0.0000       0.0000       0.0000       0.0000       0.0000       0.0000     
     6       0.0000       0.0000       0.0000       0.0000       0.0000       0.0000       0.0000       0.0000       0.0000       0.0000       0.0000       0.0000     
     7       0.0000       0.0000       0.0000       0.0000       0.0000       0.0000       0.0000       0.0000       0.0000       0.0000       0.0000       0.0000     
     8       0.0000       0.0000       0.0000       0.0000       0.0000       0.0000       0.0000       0.0000       0.0000       0.0000       0.0000       0.0000     
     9       0.0000       0.0000       0.0000       0.0000       0.0000       0.0000       0.0000       0.0000       0.0000       0.0000       0.0000       0.0000     
     10      0.0000       0.0000       0.0000       0.0000       0.0000       0.0000       0.0000       0.0000       0.0000       0.0000       0.0000       0.0000     
     11      0.0000       0.0000       0.0000       0.0000       0.0000       0.0000       0.0000       0.0000       0.0000       0.0000       0.0000       0.0000     
     12      0.0000       0.0000       0.0000       0.0000       0.0000       0.0000       0.0000       0.0000       0.0000       0.0000       0.0000       0.0000     
     13      0.0000       0.0000       0.0000       0.0000       0.0000       0.0000       0.0000       0.0000       0.0000       0.0000       0.0000       0.0000     
     14      0.0000       0.0000       0.0000       0.0000       0.0000       0.0000       0.0000       0.0000       0.0000       0.0000       0.0000       0.0000     
     15      0.0000       0.0000       0.0000       0.0000       0.0000       0.0000       0.0000       0.0000       0.0000       0.0000       0.0000       0.0000     
     16      0.0000       0.0000       0.0000       0.0000       0.0000       0.0000       0.0000       0.0000       0.0000       0.0000       0.0000       0.0000     
     17      0.0000       0.0000       0.0000       0.0000       0.0000       0.0000       0.0000       0.0000       0.0000       0.0000       0.0000       0.0000     
     18      0.0000       0.0000       0.0000       0.0000       0.0000       0.0000       0.0000       0.0000       0.0000       0.0000       0.0000       0.0000     
     19      0.0000       0.0000       0.0000       0.0000       0.0000       0.0000       0.0000       0.0000       0.0000       0.0000       0.0000       0.0000     
     20      0.0000       0.0000       0.0000       0.0000       0.0000       0.0000       0.0000       0.0000       0.0000       0.0000       0.0000       0.0000     
     21      0.0000       0.0000       0.0000       0.0000       0.0000       0.0000       0.0000       0.0000       0.0000       0.0000       0.0000       0.0000     
     22      0.0000       0.0000       0.0000       0.0000       0.0000       0.0000       0.0000       0.0000       0.0000       0.0000       0.0000       0.0000     
     23      0.0000       0.0000       0.0000       0.0000       0.0000       0.0000       0.0000       0.0000       0.0000       0.0000       0.0000       0.0000     
     24      0.0000       0.0000       0.0000       0.0000       0.0000       0.0000       0.0000       0.0000       0.0000       0.0000       0.0000       0.0000     
 ----------------------------------------------------------------------------------------------------------------------------------------------------------------------



 SFT PACKAGE (SFR-1) CONCENTRATION FOR EACH CONTROL VOLUME   PERIOD      1   STEP       73
 --------------------------------------------
 NAME                   NUMBER       CONC    
 --------------------------------------------
 SFTREACH1                1       1.0000     
 SFTREACH2                2       1.0000     
 SFTREACH3                3       1.0000     
 SFTREACH4                4       1.0000     
 SFTREACH5                5       1.0000     
 SFTREACH6                6       1.0000     
 SFTREACH7                7       1.0000     
 SFTREACH8                8       1.0000     
 SFTREACH9                9       1.0000     
 SFTREACH10               10      1.0000     
 SFTREACH11               11      1.0000     
 SFTREACH12               12      1.0000     
 SFTREACH13               13      1.0000     
 SFTREACH14               14      1.0000     
 SFTREACH15               15      1.0000     
 SFTREACH16               16      1.0000     
 SFTREACH17               17      1.0000     
 SFTREACH18               18      1.0000     
 SFTREACH19               19      1.0000     
 SFTREACH20               20      1.0000     
 SFTREACH21               21      1.0000     
 SFTREACH22               22      1.0000     
 SFTREACH23               23      1.0000     
 SFTREACH24               24      1.0000     
 --------------------------------------------


1
  CONCENTRATION IN LAYER   1 AT END OF TIME STEP  73 IN STRESS PERIOD    1
  ---------------------------------------------------------------------------

 ........................................................................................................................................................................................................................................................................................................................................................................................................................................................................................................................................................................................................................................................................................................................................................................................................................................................................................................................................................................................................................................
   1      0.00000         0.00000         0.00000         0.00000         0.00000         0.00000         0.00000         0.00000         0.00000         0.00000         0.00000         0.00000         0.00000         0.00000         0.00000         0.00000         0.00000         0.00000         0.00000         0.00000         0.00000         0.00000         0.00000         0.00000         0.00000         0.00000         0.00000         0.00000         0.00000         0.00000         0.00000         0.00000         0.00000         0.00000         0.00000         0.00000         0.00000         0.00000         0.00000         0.00000         0.00000         0.00000         0.00000         0.00000         0.00000         0.00000         0.00000         0.00000         0.00000         0.00000         0.00000         0.00000         0.00000         0.00000         0.00000         0.00000         0.00000         0.00000         0.00000         0.00000         0.00000         0.00000         0.00000         0.00000         0.00000         0.00000         0.00000         0.00000         0.00000         0.00000         0.00000         0.00000         0.00000         0.00000         0.00000         0.00000         0.00000         0.00000         0.00000         0.00000         0.00000         0.00000         0.00000         0.00000         0.00000         0.00000         0.00000         0.00000         0.00000         0.00000         0.00000         0.00000         0.00000         0.00000         0.00000         0.00000         0.00000         0.00000         0.00000         0.00000         0.00000         0.00000         0.00000         0.00000         0.00000         0.00000         0.00000         0.00000         0.00000         0.00000         0.00000         0.00000         0.00000         0.00000         0.00000         0.00000         0.00000         0.00000         0.00000         0.00000         0.00000         0.00000         0.00000         0.00000         0.00000         0.00000         0.00000         0.00000         0.00000         0.00000         0.00000         0.00000         0.00000         0.00000         0.00000         0.00000         0.00000         0.00000         0.00000         0.00000         0.00000         0.00000         0.00000         0.00000         0.00000         0.00000         0.00000         0.00000         0.00000         0.00000         0.00000         0.00000         0.00000         0.00000         0.00000         0.00000         0.00000         0.00000         0.00000         0.00000         0.00000         0.00000         0.00000         0.00000         0.00000         0.00000         0.00000         1.00000         1.00000         1.00000         1.00000         0.00000         0.00000         0.00000         0.00000         0.00000         0.00000         0.00000         0.00000         0.00000         0.00000         0.00000         0.00000         0.00000         0.00000         0.00000         0.00000         0.00000         0.00000         0.00000         0.00000         0.00000         0.00000         0.00000         0.00000         0.00000         0.00000         0.00000         0.00000         0.00000         0.00000         0.00000         0.00000         0.00000         0.00000         0.00000         0.00000         0.00000         0.00000         0.00000         0.00000         0.00000         0.00000         0.00000         0.00000         0.00000         0.00000         0.00000         0.00000         0.00000         0.00000         0.00000         0.00000         0.00000         0.00000         0.00000         0.00000         0.00000         0.00000         0.00000         0.00000         0.00000         0.00000         0.00000         0.00000         0.00000         0.00000         0.00000         0.00000         0.00000         0.00000         0.00000         0.00000         0.00000         0.00000         0.00000         0.00000         0.00000         0.00000         0.00000         0.00000         0.00000         0.00000         0.00000         0.00000         0.00000         0.00000         0.00000         0.00000         0.00000         0.00000         0.00000         0.00000         0.00000         0.00000         0.00000         0.00000         0.00000         0.00000         0.00000         0.00000         0.00000         0.00000         0.00000         0.00000         0.00000         0.00000         0.00000         0.00000         0.00000         0.00000         0.00000         0.00000         0.00000         0.00000         0.00000         0.00000         0.00000         0.00000         0.00000         0.00000         0.00000         0.00000         0.00000         0.00000         0.00000         0.00000         0.00000         0.00000         0.00000         0.00000         0.00000         0.00000         0.00000         0.00000         0.00000         0.00000         0.00000         0.00000         0.00000         0.00000         0.00000         0.00000         0.00000         0.00000         0.00000         0.00000         0.00000         0.00000         0.00000         0.00000         0.00000         0.00000         0.00000         0.00000         0.00000         0.00000         0.00000         0.00000         0.00000         0.00000         0.00000         0.00000         0.00000         0.00000         0.00000         0.00000         0.00000         0.00000         0.00000         0.00000         0.00000         0.00000         0.00000         0.00000         0.00000         0.00000         0.00000         0.00000         0.00000         0.00000         0.00000         0.00000         0.00000         0.00000         0.00000         0.00000         0.00000         0.00000         0.00000         0.00000         0.00000         0.00000         0.00000         0.00000         0.00000         0.00000         0.00000         0.00000         0.00000         0.00000         0.00000         0.00000         0.00000         0.00000         0.00000         0.00000         0.00000         0.00000         0.00000         0.00000         0.00000         0.00000         0.00000         0.00000         0.00000         0.00000         0.00000         0.00000         0.00000         0.00000         0.00000         0.00000         0.00000         0.00000         0.00000         0.00000         0.00000         0.00000         0.00000    
1
  CONCENTRATION IN LAYER   2 AT END OF TIME STEP  73 IN STRESS PERIOD    1
  ---------------------------------------------------------------------------

 ........................................................................................................................................................................................................................................................................................................................................................................................................................................................................................................................................................................................................................................................................................................................................................................................................................................................................................................................................................................................................................................
   1      0.00000         0.00000         0.00000         0.00000         0.00000         0.00000         0.00000         0.00000         0.00000         0.00000         0.00000         0.00000         0.00000         0.00000         0.00000         0.00000         0.00000         0.00000         0.00000         0.00000         0.00000         0.00000         0.00000         0.00000         0.00000         0.00000         0.00000         0.00000         0.00000         0.00000         0.00000         0.00000         0.00000         0.00000         0.00000         0.00000         0.00000         0.00000         0.00000         0.00000         0.00000         0.00000         0.00000         0.00000         0.00000         0.00000         0.00000         0.00000         0.00000         0.00000         0.00000         0.00000         0.00000         0.00000         0.00000         0.00000         0.00000         0.00000         0.00000         0.00000         0.00000         0.00000         0.00000         0.00000         0.00000         0.00000         0.00000         0.00000         0.00000         0.00000         0.00000         0.00000         0.00000         0.00000         0.00000         0.00000         0.00000         0.00000         0.00000         0.00000         0.00000         0.00000         0.00000         0.00000         0.00000         0.00000         0.00000         0.00000         0.00000         0.00000         0.00000         0.00000         0.00000         0.00000         0.00000         0.00000         0.00000         0.00000         0.00000         0.00000         0.00000         0.00000         0.00000         0.00000         0.00000         0.00000         0.00000         0.00000         0.00000         0.00000         0.00000         0.00000         0.00000         0.00000         0.00000         0.00000         0.00000         0.00000         0.00000         0.00000         0.00000         0.00000         0.00000         0.00000         0.00000         0.00000         0.00000         0.00000         0.00000         0.00000         0.00000         0.00000         0.00000         0.00000         0.00000         0.00000         0.00000         0.00000         0.00000         0.00000         0.00000         0.00000         0.00000         0.00000         0.00000         0.00000         0.00000         0.00000         0.00000         0.00000         0.00000         0.00000         0.00000         0.00000         0.00000         0.00000         0.00000         0.00000         0.00000         0.00000         0.00000         0.00000         0.00000         0.00000         0.00000         0.00000         0.00000         1.00000         1.00000         1.00000         1.00000         0.00000         0.00000         0.00000         0.00000         0.00000         0.00000         0.00000         0.00000         0.00000         0.00000         0.00000         0.00000         0.00000         0.00000         0.00000         0.00000         0.00000         0.00000         0.00000         0.00000         0.00000         0.00000         0.00000         0.00000         0.00000         0.00000         0.00000         0.00000         0.00000         0.00000         0.00000         0.00000         0.00000         0.00000         0.00000         0.00000         0.00000         0.00000         0.00000         0.00000         0.00000         0.00000         0.00000         0.00000         0.00000         0.00000         0.00000         0.00000         0.00000         0.00000         0.00000         0.00000         0.00000         0.00000         0.00000         0.00000         0.00000         0.00000         0.00000         0.00000         0.00000         0.00000         0.00000         0.00000         0.00000         0.00000         0.00000         0.00000         0.00000         0.00000         0.00000         0.00000         0.00000         0.00000         0.00000         0.00000         0.00000         0.00000         0.00000         0.00000         0.00000         0.00000         0.00000         0.00000         0.00000         0.00000         0.00000         0.00000         0.00000         0.00000         0.00000         0.00000         0.00000         0.00000         0.00000         0.00000         0.00000         0.00000         0.00000         0.00000         0.00000         0.00000         0.00000         0.00000         0.00000         0.00000         0.00000         0.00000         0.00000         0.00000         0.00000         0.00000         0.00000         0.00000         0.00000         0.00000         0.00000         0.00000         0.00000         0.00000         0.00000         0.00000         0.00000         0.00000         0.00000         0.00000         0.00000         0.00000         0.00000         0.00000         0.00000         0.00000         0.00000         0.00000         0.00000         0.00000         0.00000         0.00000         0.00000         0.00000         0.00000         0.00000         0.00000         0.00000         0.00000         0.00000         0.00000         0.00000         0.00000         0.00000         0.00000         0.00000         0.00000         0.00000         0.00000         0.00000         0.00000         0.00000         0.00000         0.00000         0.00000         0.00000         0.00000         0.00000         0.00000         0.00000         0.00000         0.00000         0.00000         0.00000         0.00000         0.00000         0.00000         0.00000         0.00000         0.00000         0.00000         0.00000         0.00000         0.00000         0.00000         0.00000         0.00000         0.00000         0.00000         0.00000         0.00000         0.00000         0.00000         0.00000         0.00000         0.00000         0.00000         0.00000         0.00000         0.00000         0.00000         0.00000         0.00000         0.00000         0.00000         0.00000         0.00000         0.00000         0.00000         0.00000         0.00000         0.00000         0.00000         0.00000         0.00000         0.00000         0.00000         0.00000         0.00000         0.00000         0.00000         0.00000         0.00000         0.00000         0.00000         0.00000         0.00000         0.00000         0.00000         0.00000         0.00000         0.00000         0.00000    
1
  CONCENTRATION IN LAYER   3 AT END OF TIME STEP  73 IN STRESS PERIOD    1
  ---------------------------------------------------------------------------

 ........................................................................................................................................................................................................................................................................................................................................................................................................................................................................................................................................................................................................................................................................................................................................................................................................................................................................................................................................................................................................................................
   1      0.00000         0.00000         0.00000         0.00000         0.00000         0.00000         0.00000         0.00000         0.00000         0.00000         0.00000         0.00000         0.00000         0.00000         0.00000         0.00000         0.00000         0.00000         0.00000         0.00000         0.00000         0.00000         0.00000         0.00000         0.00000         0.00000         0.00000         0.00000         0.00000         0.00000         0.00000         0.00000         0.00000         0.00000         0.00000         0.00000         0.00000         0.00000         0.00000         0.00000         0.00000         0.00000         0.00000         0.00000         0.00000         0.00000         0.00000         0.00000         0.00000         0.00000         0.00000         0.00000         0.00000         0.00000         0.00000         0.00000         0.00000         0.00000         0.00000         0.00000         0.00000         0.00000         0.00000         0.00000         0.00000         0.00000         0.00000         0.00000         0.00000         0.00000         0.00000         0.00000         0.00000         0.00000         0.00000         0.00000         0.00000         0.00000         0.00000         0.00000         0.00000         0.00000         0.00000         0.00000         0.00000         0.00000         0.00000         0.00000         0.00000         0.00000         0.00000         0.00000         0.00000         0.00000         0.00000         0.00000         0.00000         0.00000         0.00000         0.00000         0.00000         0.00000         0.00000         0.00000         0.00000         0.00000         0.00000         0.00000         0.00000         0.00000         0.00000         0.00000         0.00000         0.00000         0.00000         0.00000         0.00000         0.00000         0.00000         0.00000         0.00000         0.00000         0.00000         0.00000         0.00000         0.00000         0.00000         0.00000         0.00000         0.00000         0.00000         0.00000         0.00000         0.00000         0.00000         0.00000         0.00000         0.00000         0.00000         0.00000         0.00000         0.00000         0.00000         0.00000         0.00000         0.00000         0.00000         0.00000         0.00000         0.00000         0.00000         0.00000         0.00000         0.00000         0.00000         0.00000         0.00000         0.00000         0.00000         0.00000         0.00000         0.00000         0.00000         0.00000         0.00000         0.00000         0.00000         1.00000         1.00000         1.00000         1.00000         0.00000         0.00000         0.00000         0.00000         0.00000         0.00000         0.00000         0.00000         0.00000         0.00000         0.00000         0.00000         0.00000         0.00000         0.00000         0.00000         0.00000         0.00000         0.00000         0.00000         0.00000         0.00000         0.00000         0.00000         0.00000         0.00000         0.00000         0.00000         0.00000         0.00000         0.00000         0.00000         0.00000         0.00000         0.00000         0.00000         0.00000         0.00000         0.00000         0.00000         0.00000         0.00000         0.00000         0.00000         0.00000         0.00000         0.00000         0.00000         0.00000         0.00000         0.00000         0.00000         0.00000         0.00000         0.00000         0.00000         0.00000         0.00000         0.00000         0.00000         0.00000         0.00000         0.00000         0.00000         0.00000         0.00000         0.00000         0.00000         0.00000         0.00000         0.00000         0.00000         0.00000         0.00000         0.00000         0.00000         0.00000         0.00000         0.00000         0.00000         0.00000         0.00000         0.00000         0.00000         0.00000         0.00000         0.00000         0.00000         0.00000         0.00000         0.00000         0.00000         0.00000         0.00000         0.00000         0.00000         0.00000         0.00000         0.00000         0.00000         0.00000         0.00000         0.00000         0.00000         0.00000         0.00000         0.00000         0.00000         0.00000         0.00000         0.00000         0.00000         0.00000         0.00000         0.00000         0.00000         0.00000         0.00000         0.00000         0.00000         0.00000         0.00000         0.00000         0.00000         0.00000         0.00000         0.00000         0.00000         0.00000         0.00000         0.00000         0.00000         0.00000         0.00000         0.00000         0.00000         0.00000         0.00000         0.00000         0.00000         0.00000         0.00000         0.00000         0.00000         0.00000         0.00000         0.00000         0.00000         0.00000         0.00000         0.00000         0.00000         0.00000         0.00000         0.00000         0.00000         0.00000         0.00000         0.00000         0.00000         0.00000         0.00000         0.00000         0.00000         0.00000         0.00000         0.00000         0.00000         0.00000         0.00000         0.00000         0.00000         0.00000         0.00000         0.00000         0.00000         0.00000         0.00000         0.00000         0.00000         0.00000         0.00000         0.00000         0.00000         0.00000         0.00000         0.00000         0.00000         0.00000         0.00000         0.00000         0.00000         0.00000         0.00000         0.00000         0.00000         0.00000         0.00000         0.00000         0.00000         0.00000         0.00000         0.00000         0.00000         0.00000         0.00000         0.00000         0.00000         0.00000         0.00000         0.00000         0.00000         0.00000         0.00000         0.00000         0.00000         0.00000         0.00000         0.00000         0.00000         0.00000         0.00000         0.00000         0.00000         0.00000         0.00000         0.00000         0.00000         0.00000    
1
  CONCENTRATION IN LAYER   4 AT END OF TIME STEP  73 IN STRESS PERIOD    1
  ---------------------------------------------------------------------------

 ........................................................................................................................................................................................................................................................................................................................................................................................................................................................................................................................................................................................................................................................................................................................................................................................................................................................................................................................................................................................................................................
   1      0.00000         0.00000         0.00000         0.00000         0.00000         0.00000         0.00000         0.00000         0.00000         0.00000         0.00000         0.00000         0.00000         0.00000         0.00000         0.00000         0.00000         0.00000         0.00000         0.00000         0.00000         0.00000         0.00000         0.00000         0.00000         0.00000         0.00000         0.00000         0.00000         0.00000         0.00000         0.00000         0.00000         0.00000         0.00000         0.00000         0.00000         0.00000         0.00000         0.00000         0.00000         0.00000         0.00000         0.00000         0.00000         0.00000         0.00000         0.00000         0.00000         0.00000         0.00000         0.00000         0.00000         0.00000         0.00000         0.00000         0.00000         0.00000         0.00000         0.00000         0.00000         0.00000         0.00000         0.00000         0.00000         0.00000         0.00000         0.00000         0.00000         0.00000         0.00000         0.00000         0.00000         0.00000         0.00000         0.00000         0.00000         0.00000         0.00000         0.00000         0.00000         0.00000         0.00000         0.00000         0.00000         0.00000         0.00000         0.00000         0.00000         0.00000         0.00000         0.00000         0.00000         0.00000         0.00000         0.00000         0.00000         0.00000         0.00000         0.00000         0.00000         0.00000         0.00000         0.00000         0.00000         0.00000         0.00000         0.00000         0.00000         0.00000         0.00000         0.00000         0.00000         0.00000         0.00000         0.00000         0.00000         0.00000         0.00000         0.00000         0.00000         0.00000         0.00000         0.00000         0.00000         0.00000         0.00000         0.00000         0.00000         0.00000         0.00000         0.00000         0.00000         0.00000         0.00000         0.00000         0.00000         0.00000         0.00000         0.00000         0.00000         0.00000         0.00000         0.00000         0.00000         0.00000         0.00000         0.00000         0.00000         0.00000         0.00000         0.00000         0.00000         0.00000         0.00000         0.00000         0.00000         0.00000         0.00000         0.00000         0.00000         0.00000         0.00000         0.00000         0.00000         0.00000         0.00000         1.00000         1.00000         1.00000         1.00000         0.00000         0.00000         0.00000         0.00000         0.00000         0.00000         0.00000         0.00000         0.00000         0.00000         0.00000         0.00000         0.00000         0.00000         0.00000         0.00000         0.00000         0.00000         0.00000         0.00000         0.00000         0.00000         0.00000         0.00000         0.00000         0.00000         0.00000         0.00000         0.00000         0.00000         0.00000         0.00000         0.00000         0.00000         0.00000         0.00000         0.00000         0.00000         0.00000         0.00000         0.00000         0.00000         0.00000         0.00000         0.00000         0.00000         0.00000         0.00000         0.00000         0.00000         0.00000         0.00000         0.00000         0.00000         0.00000         0.00000         0.00000         0.00000         0.00000         0.00000         0.00000         0.00000         0.00000         0.00000         0.00000         0.00000         0.00000         0.00000         0.00000         0.00000         0.00000         0.00000         0.00000         0.00000         0.00000         0.00000         0.00000         0.00000         0.00000         0.00000         0.00000         0.00000         0.00000         0.00000         0.00000         0.00000         0.00000         0.00000         0.00000         0.00000         0.00000         0.00000         0.00000         0.00000         0.00000         0.00000         0.00000         0.00000         0.00000         0.00000         0.00000         0.00000         0.00000         0.00000         0.00000         0.00000         0.00000         0.00000         0.00000         0.00000         0.00000         0.00000         0.00000         0.00000         0.00000         0.00000         0.00000         0.00000         0.00000         0.00000         0.00000         0.00000         0.00000         0.00000         0.00000         0.00000         0.00000         0.00000         0.00000         0.00000         0.00000         0.00000         0.00000         0.00000         0.00000         0.00000         0.00000         0.00000         0.00000         0.00000         0.00000         0.00000         0.00000         0.00000         0.00000         0.00000         0.00000         0.00000         0.00000         0.00000         0.00000         0.00000         0.00000         0.00000         0.00000         0.00000         0.00000         0.00000         0.00000         0.00000         0.00000         0.00000         0.00000         0.00000         0.00000         0.00000         0.00000         0.00000         0.00000         0.00000         0.00000         0.00000         0.00000         0.00000         0.00000         0.00000         0.00000         0.00000         0.00000         0.00000         0.00000         0.00000         0.00000         0.00000         0.00000         0.00000         0.00000         0.00000         0.00000         0.00000         0.00000         0.00000         0.00000         0.00000         0.00000         0.00000         0.00000         0.00000         0.00000         0.00000         0.00000         0.00000         0.00000         0.00000         0.00000         0.00000         0.00000         0.00000         0.00000         0.00000         0.00000         0.00000         0.00000         0.00000         0.00000         0.00000         0.00000         0.00000         0.00000         0.00000         0.00000         0.00000         0.00000         0.00000         0.00000         0.00000         0.00000         0.00000         0.00000    
1
  CONCENTRATION IN LAYER   5 AT END OF TIME STEP  73 IN STRESS PERIOD    1
  ---------------------------------------------------------------------------

 ........................................................................................................................................................................................................................................................................................................................................................................................................................................................................................................................................................................................................................................................................................................................................................................................................................................................................................................................................................................................................................................
   1      0.00000         0.00000         0.00000         0.00000         0.00000         0.00000         0.00000         0.00000         0.00000         0.00000         0.00000         0.00000         0.00000         0.00000         0.00000         0.00000         0.00000         0.00000         0.00000         0.00000         0.00000         0.00000         0.00000         0.00000         0.00000         0.00000         0.00000         0.00000         0.00000         0.00000         0.00000         0.00000         0.00000         0.00000         0.00000         0.00000         0.00000         0.00000         0.00000         0.00000         0.00000         0.00000         0.00000         0.00000         0.00000         0.00000         0.00000         0.00000         0.00000         0.00000         0.00000         0.00000         0.00000         0.00000         0.00000         0.00000         0.00000         0.00000         0.00000         0.00000         0.00000         0.00000         0.00000         0.00000         0.00000         0.00000         0.00000         0.00000         0.00000         0.00000         0.00000         0.00000         0.00000         0.00000         0.00000         0.00000         0.00000         0.00000         0.00000         0.00000         0.00000         0.00000         0.00000         0.00000         0.00000         0.00000         0.00000         0.00000         0.00000         0.00000         0.00000         0.00000         0.00000         0.00000         0.00000         0.00000         0.00000         0.00000         0.00000         0.00000         0.00000         0.00000         0.00000         0.00000         0.00000         0.00000         0.00000         0.00000         0.00000         0.00000         0.00000         0.00000         0.00000         0.00000         0.00000         0.00000         0.00000         0.00000         0.00000         0.00000         0.00000         0.00000         0.00000         0.00000         0.00000         0.00000         0.00000         0.00000         0.00000         0.00000         0.00000         0.00000         0.00000         0.00000         0.00000         0.00000         0.00000         0.00000         0.00000         0.00000         0.00000         0.00000         0.00000         0.00000         0.00000         0.00000         0.00000         0.00000         0.00000         0.00000         0.00000         0.00000         0.00000         0.00000         0.00000         0.00000         0.00000         0.00000         0.00000         0.00000         0.00000         0.00000         0.00000         0.00000         0.00000         0.00000         0.00000         1.00000         1.00000         1.00000         1.00000         0.00000         0.00000         0.00000         0.00000         0.00000         0.00000         0.00000         0.00000         0.00000         0.00000         0.00000         0.00000         0.00000         0.00000         0.00000         0.00000         0.00000         0.00000         0.00000         0.00000         0.00000         0.00000         0.00000         0.00000         0.00000         0.00000         0.00000         0.00000         0.00000         0.00000         0.00000         0.00000         0.00000         0.00000         0.00000         0.00000         0.00000         0.00000         0.00000         0.00000         0.00000         0.00000         0.00000         0.00000         0.00000         0.00000         0.00000         0.00000         0.00000         0.00000         0.00000         0.00000         0.00000         0.00000         0.00000         0.00000         0.00000         0.00000         0.00000         0.00000         0.00000         0.00000         0.00000         0.00000         0.00000         0.00000         0.00000         0.00000         0.00000         0.00000         0.00000         0.00000         0.00000         0.00000         0.00000         0.00000         0.00000         0.00000         0.00000         0.00000         0.00000         0.00000         0.00000         0.00000         0.00000         0.00000         0.00000         0.00000         0.00000         0.00000         0.00000         0.00000         0.00000         0.00000         0.00000         0.00000         0.00000         0.00000         0.00000         0.00000         0.00000         0.00000         0.00000         0.00000         0.00000         0.00000         0.00000         0.00000         0.00000         0.00000         0.00000         0.00000         0.00000         0.00000         0.00000         0.00000         0.00000         0.00000         0.00000         0.00000         0.00000         0.00000         0.00000         0.00000         0.00000         0.00000         0.00000         0.00000         0.00000         0.00000         0.00000         0.00000         0.00000         0.00000         0.00000         0.00000         0.00000         0.00000         0.00000         0.00000         0.00000         0.00000         0.00000         0.00000         0.00000         0.00000         0.00000         0.00000         0.00000         0.00000         0.00000         0.00000         0.00000         0.00000         0.00000         0.00000         0.00000         0.00000         0.00000         0.00000         0.00000         0.00000         0.00000         0.00000         0.00000         0.00000         0.00000         0.00000         0.00000         0.00000         0.00000         0.00000         0.00000         0.00000         0.00000         0.00000         0.00000         0.00000         0.00000         0.00000         0.00000         0.00000         0.00000         0.00000         0.00000         0.00000         0.00000         0.00000         0.00000         0.00000         0.00000         0.00000         0.00000         0.00000         0.00000         0.00000         0.00000         0.00000         0.00000         0.00000         0.00000         0.00000         0.00000         0.00000         0.00000         0.00000         0.00000         0.00000         0.00000         0.00000         0.00000         0.00000         0.00000         0.00000         0.00000         0.00000         0.00000         0.00000         0.00000         0.00000         0.00000         0.00000         0.00000         0.00000         0.00000         0.00000         0.00000         0.00000         0.00000    
1
  CONCENTRATION IN LAYER   6 AT END OF TIME STEP  73 IN STRESS PERIOD    1
  ---------------------------------------------------------------------------

 ........................................................................................................................................................................................................................................................................................................................................................................................................................................................................................................................................................................................................................................................................................................................................................................................................................................................................................................................................................................................................................................
   1      0.00000         0.00000         0.00000         0.00000         0.00000         0.00000         0.00000         0.00000         0.00000         0.00000         0.00000         0.00000         0.00000         0.00000         0.00000         0.00000         0.00000         0.00000         0.00000         0.00000         0.00000         0.00000         0.00000         0.00000         0.00000         0.00000         0.00000         0.00000         0.00000         0.00000         0.00000         0.00000         0.00000         0.00000         0.00000         0.00000         0.00000         0.00000         0.00000         0.00000         0.00000         0.00000         0.00000         0.00000         0.00000         0.00000         0.00000         0.00000         0.00000         0.00000         0.00000         0.00000         0.00000         0.00000         0.00000         0.00000         0.00000         0.00000         0.00000         0.00000         0.00000         0.00000         0.00000         0.00000         0.00000         0.00000         0.00000         0.00000         0.00000         0.00000         0.00000         0.00000         0.00000         0.00000         0.00000         0.00000         0.00000         0.00000         0.00000         0.00000         0.00000         0.00000         0.00000         0.00000         0.00000         0.00000         0.00000         0.00000         0.00000         0.00000         0.00000         0.00000         0.00000         0.00000         0.00000         0.00000         0.00000         0.00000         0.00000         0.00000         0.00000         0.00000         0.00000         0.00000         0.00000         0.00000         0.00000         0.00000         0.00000         0.00000         0.00000         0.00000         0.00000         0.00000         0.00000         0.00000         0.00000         0.00000         0.00000         0.00000         0.00000         0.00000         0.00000         0.00000         0.00000         0.00000         0.00000         0.00000         0.00000         0.00000         0.00000         0.00000         0.00000         0.00000         0.00000         0.00000         0.00000         0.00000         0.00000         0.00000         0.00000         0.00000         0.00000         0.00000         0.00000         0.00000         0.00000         0.00000         0.00000         0.00000         0.00000         0.00000         0.00000         0.00000         0.00000         0.00000         0.00000         0.00000         0.00000         0.00000         0.00000         0.00000         0.00000         0.00000         0.00000         0.00000         0.00000         1.00000         1.00000         1.00000         1.00000         0.00000         0.00000         0.00000         0.00000         0.00000         0.00000         0.00000         0.00000         0.00000         0.00000         0.00000         0.00000         0.00000         0.00000         0.00000         0.00000         0.00000         0.00000         0.00000         0.00000         0.00000         0.00000         0.00000         0.00000         0.00000         0.00000         0.00000         0.00000         0.00000         0.00000         0.00000         0.00000         0.00000         0.00000         0.00000         0.00000         0.00000         0.00000         0.00000         0.00000         0.00000         0.00000         0.00000         0.00000         0.00000         0.00000         0.00000         0.00000         0.00000         0.00000         0.00000         0.00000         0.00000         0.00000         0.00000         0.00000         0.00000         0.00000         0.00000         0.00000         0.00000         0.00000         0.00000         0.00000         0.00000         0.00000         0.00000         0.00000         0.00000         0.00000         0.00000         0.00000         0.00000         0.00000         0.00000         0.00000         0.00000         0.00000         0.00000         0.00000         0.00000         0.00000         0.00000         0.00000         0.00000         0.00000         0.00000         0.00000         0.00000         0.00000         0.00000         0.00000         0.00000         0.00000         0.00000         0.00000         0.00000         0.00000         0.00000         0.00000         0.00000         0.00000         0.00000         0.00000         0.00000         0.00000         0.00000         0.00000         0.00000         0.00000         0.00000         0.00000         0.00000         0.00000         0.00000         0.00000         0.00000         0.00000         0.00000         0.00000         0.00000         0.00000         0.00000         0.00000         0.00000         0.00000         0.00000         0.00000         0.00000         0.00000         0.00000         0.00000         0.00000         0.00000         0.00000         0.00000         0.00000         0.00000         0.00000         0.00000         0.00000         0.00000         0.00000         0.00000         0.00000         0.00000         0.00000         0.00000         0.00000         0.00000         0.00000         0.00000         0.00000         0.00000         0.00000         0.00000         0.00000         0.00000         0.00000         0.00000         0.00000         0.00000         0.00000         0.00000         0.00000         0.00000         0.00000         0.00000         0.00000         0.00000         0.00000         0.00000         0.00000         0.00000         0.00000         0.00000         0.00000         0.00000         0.00000         0.00000         0.00000         0.00000         0.00000         0.00000         0.00000         0.00000         0.00000         0.00000         0.00000         0.00000         0.00000         0.00000         0.00000         0.00000         0.00000         0.00000         0.00000         0.00000         0.00000         0.00000         0.00000         0.00000         0.00000         0.00000         0.00000         0.00000         0.00000         0.00000         0.00000         0.00000         0.00000         0.00000         0.00000         0.00000         0.00000         0.00000         0.00000         0.00000         0.00000         0.00000         0.00000         0.00000         0.00000         0.00000         0.00000         0.00000         0.00000         0.00000         0.00000    
1
  CONCENTRATION IN LAYER   7 AT END OF TIME STEP  73 IN STRESS PERIOD    1
  ---------------------------------------------------------------------------

 ........................................................................................................................................................................................................................................................................................................................................................................................................................................................................................................................................................................................................................................................................................................................................................................................................................................................................................................................................................................................................................................
   1      0.00000         0.00000         0.00000         0.00000         0.00000         0.00000         0.00000         0.00000         0.00000         0.00000         0.00000         0.00000         0.00000         0.00000         0.00000         0.00000         0.00000         0.00000         0.00000         0.00000         0.00000         0.00000         0.00000         0.00000         0.00000         0.00000         0.00000         0.00000         0.00000         0.00000         0.00000         0.00000         0.00000         0.00000         0.00000         0.00000         0.00000         0.00000         0.00000         0.00000         0.00000         0.00000         0.00000         0.00000         0.00000         0.00000         0.00000         0.00000         0.00000         0.00000         0.00000         0.00000         0.00000         0.00000         0.00000         0.00000         0.00000         0.00000         0.00000         0.00000         0.00000         0.00000         0.00000         0.00000         0.00000         0.00000         0.00000         0.00000         0.00000         0.00000         0.00000         0.00000         0.00000         0.00000         0.00000         0.00000         0.00000         0.00000         0.00000         0.00000         0.00000         0.00000         0.00000         0.00000         0.00000         0.00000         0.00000         0.00000         0.00000         0.00000         0.00000         0.00000         0.00000         0.00000         0.00000         0.00000         0.00000         0.00000         0.00000         0.00000         0.00000         0.00000         0.00000         0.00000         0.00000         0.00000         0.00000         0.00000         0.00000         0.00000         0.00000         0.00000         0.00000         0.00000         0.00000         0.00000         0.00000         0.00000         0.00000         0.00000         0.00000         0.00000         0.00000         0.00000         0.00000         0.00000         0.00000         0.00000         0.00000         0.00000         0.00000         0.00000         0.00000         0.00000         0.00000         0.00000         0.00000         0.00000         0.00000         0.00000         0.00000         0.00000         0.00000         0.00000         0.00000         0.00000         0.00000         0.00000         0.00000         0.00000         0.00000         0.00000         0.00000         0.00000         0.00000         0.00000         0.00000         0.00000         0.00000         0.00000         0.00000         0.00000         0.00000         0.00000         0.00000         0.00000         0.00000         1.00000         1.00000         1.00000         1.00000         0.00000         0.00000         0.00000         0.00000         0.00000         0.00000         0.00000         0.00000         0.00000         0.00000         0.00000         0.00000         0.00000         0.00000         0.00000         0.00000         0.00000         0.00000         0.00000         0.00000         0.00000         0.00000         0.00000         0.00000         0.00000         0.00000         0.00000         0.00000         0.00000         0.00000         0.00000         0.00000         0.00000         0.00000         0.00000         0.00000         0.00000         0.00000         0.00000         0.00000         0.00000         0.00000         0.00000         0.00000         0.00000         0.00000         0.00000         0.00000         0.00000         0.00000         0.00000         0.00000         0.00000         0.00000         0.00000         0.00000         0.00000         0.00000         0.00000         0.00000         0.00000         0.00000         0.00000         0.00000         0.00000         0.00000         0.00000         0.00000         0.00000         0.00000         0.00000         0.00000         0.00000         0.00000         0.00000         0.00000         0.00000         0.00000         0.00000         0.00000         0.00000         0.00000         0.00000         0.00000         0.00000         0.00000         0.00000         0.00000         0.00000         0.00000         0.00000         0.00000         0.00000         0.00000         0.00000         0.00000         0.00000         0.00000         0.00000         0.00000         0.00000         0.00000         0.00000         0.00000         0.00000         0.00000         0.00000         0.00000         0.00000         0.00000         0.00000         0.00000         0.00000         0.00000         0.00000         0.00000         0.00000         0.00000         0.00000         0.00000         0.00000         0.00000         0.00000         0.00000         0.00000         0.00000         0.00000         0.00000         0.00000         0.00000         0.00000         0.00000         0.00000         0.00000         0.00000         0.00000         0.00000         0.00000         0.00000         0.00000         0.00000         0.00000         0.00000         0.00000         0.00000         0.00000         0.00000         0.00000         0.00000         0.00000         0.00000         0.00000         0.00000         0.00000         0.00000         0.00000         0.00000         0.00000         0.00000         0.00000         0.00000         0.00000         0.00000         0.00000         0.00000         0.00000         0.00000         0.00000         0.00000         0.00000         0.00000         0.00000         0.00000         0.00000         0.00000         0.00000         0.00000         0.00000         0.00000         0.00000         0.00000         0.00000         0.00000         0.00000         0.00000         0.00000         0.00000         0.00000         0.00000         0.00000         0.00000         0.00000         0.00000         0.00000         0.00000         0.00000         0.00000         0.00000         0.00000         0.00000         0.00000         0.00000         0.00000         0.00000         0.00000         0.00000         0.00000         0.00000         0.00000         0.00000         0.00000         0.00000         0.00000         0.00000         0.00000         0.00000         0.00000         0.00000         0.00000         0.00000         0.00000         0.00000         0.00000         0.00000         0.00000         0.00000         0.00000         0.00000         0.00000    
1
  CONCENTRATION IN LAYER   8 AT END OF TIME STEP  73 IN STRESS PERIOD    1
  ---------------------------------------------------------------------------

 ........................................................................................................................................................................................................................................................................................................................................................................................................................................................................................................................................................................................................................................................................................................................................................................................................................................................................................................................................................................................................................................
   1      0.00000         0.00000         0.00000         0.00000         0.00000         0.00000         0.00000         0.00000         0.00000         0.00000         0.00000         0.00000         0.00000         0.00000         0.00000         0.00000         0.00000         0.00000         0.00000         0.00000         0.00000         0.00000         0.00000         0.00000         0.00000         0.00000         0.00000         0.00000         0.00000         0.00000         0.00000         0.00000         0.00000         0.00000         0.00000         0.00000         0.00000         0.00000         0.00000         0.00000         0.00000         0.00000         0.00000         0.00000         0.00000         0.00000         0.00000         0.00000         0.00000         0.00000         0.00000         0.00000         0.00000         0.00000         0.00000         0.00000         0.00000         0.00000         0.00000         0.00000         0.00000         0.00000         0.00000         0.00000         0.00000         0.00000         0.00000         0.00000         0.00000         0.00000         0.00000         0.00000         0.00000         0.00000         0.00000         0.00000         0.00000         0.00000         0.00000         0.00000         0.00000         0.00000         0.00000         0.00000         0.00000         0.00000         0.00000         0.00000         0.00000         0.00000         0.00000         0.00000         0.00000         0.00000         0.00000         0.00000         0.00000         0.00000         0.00000         0.00000         0.00000         0.00000         0.00000         0.00000         0.00000         0.00000         0.00000         0.00000         0.00000         0.00000         0.00000         0.00000         0.00000         0.00000         0.00000         0.00000         0.00000         0.00000         0.00000         0.00000         0.00000         0.00000         0.00000         0.00000         0.00000         0.00000         0.00000         0.00000         0.00000         0.00000         0.00000         0.00000         0.00000         0.00000         0.00000         0.00000         0.00000         0.00000         0.00000         0.00000         0.00000         0.00000         0.00000         0.00000         0.00000         0.00000         0.00000         0.00000         0.00000         0.00000         0.00000         0.00000         0.00000         0.00000         0.00000         0.00000         0.00000         0.00000         0.00000         0.00000         0.00000         0.00000         0.00000         0.00000         0.00000         0.00000         0.00000         1.00000         1.00000         1.00000         1.00000         0.00000         0.00000         0.00000         0.00000         0.00000         0.00000         0.00000         0.00000         0.00000         0.00000         0.00000         0.00000         0.00000         0.00000         0.00000         0.00000         0.00000         0.00000         0.00000         0.00000         0.00000         0.00000         0.00000         0.00000         0.00000         0.00000         0.00000         0.00000         0.00000         0.00000         0.00000         0.00000         0.00000         0.00000         0.00000         0.00000         0.00000         0.00000         0.00000         0.00000         0.00000         0.00000         0.00000         0.00000         0.00000         0.00000         0.00000         0.00000         0.00000         0.00000         0.00000         0.00000         0.00000         0.00000         0.00000         0.00000         0.00000         0.00000         0.00000         0.00000         0.00000         0.00000         0.00000         0.00000         0.00000         0.00000         0.00000         0.00000         0.00000         0.00000         0.00000         0.00000         0.00000         0.00000         0.00000         0.00000         0.00000         0.00000         0.00000         0.00000         0.00000         0.00000         0.00000         0.00000         0.00000         0.00000         0.00000         0.00000         0.00000         0.00000         0.00000         0.00000         0.00000         0.00000         0.00000         0.00000         0.00000         0.00000         0.00000         0.00000         0.00000         0.00000         0.00000         0.00000         0.00000         0.00000         0.00000         0.00000         0.00000         0.00000         0.00000         0.00000         0.00000         0.00000         0.00000         0.00000         0.00000         0.00000         0.00000         0.00000         0.00000         0.00000         0.00000         0.00000         0.00000         0.00000         0.00000         0.00000         0.00000         0.00000         0.00000         0.00000         0.00000         0.00000         0.00000         0.00000         0.00000         0.00000         0.00000         0.00000         0.00000         0.00000         0.00000         0.00000         0.00000         0.00000         0.00000         0.00000         0.00000         0.00000         0.00000         0.00000         0.00000         0.00000         0.00000         0.00000         0.00000         0.00000         0.00000         0.00000         0.00000         0.00000         0.00000         0.00000         0.00000         0.00000         0.00000         0.00000         0.00000         0.00000         0.00000         0.00000         0.00000         0.00000         0.00000         0.00000         0.00000         0.00000         0.00000         0.00000         0.00000         0.00000         0.00000         0.00000         0.00000         0.00000         0.00000         0.00000         0.00000         0.00000         0.00000         0.00000         0.00000         0.00000         0.00000         0.00000         0.00000         0.00000         0.00000         0.00000         0.00000         0.00000         0.00000         0.00000         0.00000         0.00000         0.00000         0.00000         0.00000         0.00000         0.00000         0.00000         0.00000         0.00000         0.00000         0.00000         0.00000         0.00000         0.00000         0.00000         0.00000         0.00000         0.00000         0.00000         0.00000         0.00000         0.00000         0.00000         0.00000    
1
  CONCENTRATION IN LAYER   9 AT END OF TIME STEP  73 IN STRESS PERIOD    1
  ---------------------------------------------------------------------------

 ........................................................................................................................................................................................................................................................................................................................................................................................................................................................................................................................................................................................................................................................................................................................................................................................................................................................................................................................................................................................................................................
   1      0.00000         0.00000         0.00000         0.00000         0.00000         0.00000         0.00000         0.00000         0.00000         0.00000         0.00000         0.00000         0.00000         0.00000         0.00000         0.00000         0.00000         0.00000         0.00000         0.00000         0.00000         0.00000         0.00000         0.00000         0.00000         0.00000         0.00000         0.00000         0.00000         0.00000         0.00000         0.00000         0.00000         0.00000         0.00000         0.00000         0.00000         0.00000         0.00000         0.00000         0.00000         0.00000         0.00000         0.00000         0.00000         0.00000         0.00000         0.00000         0.00000         0.00000         0.00000         0.00000         0.00000         0.00000         0.00000         0.00000         0.00000         0.00000         0.00000         0.00000         0.00000         0.00000         0.00000         0.00000         0.00000         0.00000         0.00000         0.00000         0.00000         0.00000         0.00000         0.00000         0.00000         0.00000         0.00000         0.00000         0.00000         0.00000         0.00000         0.00000         0.00000         0.00000         0.00000         0.00000         0.00000         0.00000         0.00000         0.00000         0.00000         0.00000         0.00000         0.00000         0.00000         0.00000         0.00000         0.00000         0.00000         0.00000         0.00000         0.00000         0.00000         0.00000         0.00000         0.00000         0.00000         0.00000         0.00000         0.00000         0.00000         0.00000         0.00000         0.00000         0.00000         0.00000         0.00000         0.00000         0.00000         0.00000         0.00000         0.00000         0.00000         0.00000         0.00000         0.00000         0.00000         0.00000         0.00000         0.00000         0.00000         0.00000         0.00000         0.00000         0.00000         0.00000         0.00000         0.00000         0.00000         0.00000         0.00000         0.00000         0.00000         0.00000         0.00000         0.00000         0.00000         0.00000         0.00000         0.00000         0.00000         0.00000         0.00000         0.00000         0.00000         0.00000         0.00000         0.00000         0.00000         0.00000         0.00000         0.00000         0.00000         0.00000         0.00000         0.00000         0.00000         0.00000         0.00000         1.00000         1.00000         1.00000         1.00000         0.00000         0.00000         0.00000         0.00000         0.00000         0.00000         0.00000         0.00000         0.00000         0.00000         0.00000         0.00000         0.00000         0.00000         0.00000         0.00000         0.00000         0.00000         0.00000         0.00000         0.00000         0.00000         0.00000         0.00000         0.00000         0.00000         0.00000         0.00000         0.00000         0.00000         0.00000         0.00000         0.00000         0.00000         0.00000         0.00000         0.00000         0.00000         0.00000         0.00000         0.00000         0.00000         0.00000         0.00000         0.00000         0.00000         0.00000         0.00000         0.00000         0.00000         0.00000         0.00000         0.00000         0.00000         0.00000         0.00000         0.00000         0.00000         0.00000         0.00000         0.00000         0.00000         0.00000         0.00000         0.00000         0.00000         0.00000         0.00000         0.00000         0.00000         0.00000         0.00000         0.00000         0.00000         0.00000         0.00000         0.00000         0.00000         0.00000         0.00000         0.00000         0.00000         0.00000         0.00000         0.00000         0.00000         0.00000         0.00000         0.00000         0.00000         0.00000         0.00000         0.00000         0.00000         0.00000         0.00000         0.00000         0.00000         0.00000         0.00000         0.00000         0.00000         0.00000         0.00000         0.00000         0.00000         0.00000         0.00000         0.00000         0.00000         0.00000         0.00000         0.00000         0.00000         0.00000         0.00000         0.00000         0.00000         0.00000         0.00000         0.00000         0.00000         0.00000         0.00000         0.00000         0.00000         0.00000         0.00000         0.00000         0.00000         0.00000         0.00000         0.00000         0.00000         0.00000         0.00000         0.00000         0.00000         0.00000         0.00000         0.00000         0.00000         0.00000         0.00000         0.00000         0.00000         0.00000         0.00000         0.00000         0.00000         0.00000         0.00000         0.00000         0.00000         0.00000         0.00000         0.00000         0.00000         0.00000         0.00000         0.00000         0.00000         0.00000         0.00000         0.00000         0.00000         0.00000         0.00000         0.00000         0.00000         0.00000         0.00000         0.00000         0.00000         0.00000         0.00000         0.00000         0.00000         0.00000         0.00000         0.00000         0.00000         0.00000         0.00000         0.00000         0.00000         0.00000         0.00000         0.00000         0.00000         0.00000         0.00000         0.00000         0.00000         0.00000         0.00000         0.00000         0.00000         0.00000         0.00000         0.00000         0.00000         0.00000         0.00000         0.00000         0.00000         0.00000         0.00000         0.00000         0.00000         0.00000         0.00000         0.00000         0.00000         0.00000         0.00000         0.00000         0.00000         0.00000         0.00000         0.00000         0.00000         0.00000         0.00000         0.00000         0.00000         0.00000         0.00000         0.00000    
1
  CONCENTRATION IN LAYER  10 AT END OF TIME STEP  73 IN STRESS PERIOD    1
  ---------------------------------------------------------------------------

 ........................................................................................................................................................................................................................................................................................................................................................................................................................................................................................................................................................................................................................................................................................................................................................................................................................................................................................................................................................................................................................................
   1      0.00000         0.00000         0.00000         0.00000         0.00000         0.00000         0.00000         0.00000         0.00000         0.00000         0.00000         0.00000         0.00000         0.00000         0.00000         0.00000         0.00000         0.00000         0.00000         0.00000         0.00000         0.00000         0.00000         0.00000         0.00000         0.00000         0.00000         0.00000         0.00000         0.00000         0.00000         0.00000         0.00000         0.00000         0.00000         0.00000         0.00000         0.00000         0.00000         0.00000         0.00000         0.00000         0.00000         0.00000         0.00000         0.00000         0.00000         0.00000         0.00000         0.00000         0.00000         0.00000         0.00000         0.00000         0.00000         0.00000         0.00000         0.00000         0.00000         0.00000         0.00000         0.00000         0.00000         0.00000         0.00000         0.00000         0.00000         0.00000         0.00000         0.00000         0.00000         0.00000         0.00000         0.00000         0.00000         0.00000         0.00000         0.00000         0.00000         0.00000         0.00000         0.00000         0.00000         0.00000         0.00000         0.00000         0.00000         0.00000         0.00000         0.00000         0.00000         0.00000         0.00000         0.00000         0.00000         0.00000         0.00000         0.00000         0.00000         0.00000         0.00000         0.00000         0.00000         0.00000         0.00000         0.00000         0.00000         0.00000         0.00000         0.00000         0.00000         0.00000         0.00000         0.00000         0.00000         0.00000         0.00000         0.00000         0.00000         0.00000         0.00000         0.00000         0.00000         0.00000         0.00000         0.00000         0.00000         0.00000         0.00000         0.00000         0.00000         0.00000         0.00000         0.00000         0.00000         0.00000         0.00000         0.00000         0.00000         0.00000         0.00000         0.00000         0.00000         0.00000         0.00000         0.00000         0.00000         0.00000         0.00000         0.00000         0.00000         0.00000         0.00000         0.00000         0.00000         0.00000         0.00000         0.00000         0.00000         0.00000         0.00000         0.00000         0.00000         0.00000         0.00000         0.00000         0.00000         1.00000         1.00000         1.00000         1.00000         0.00000         0.00000         0.00000         0.00000         0.00000         0.00000         0.00000         0.00000         0.00000         0.00000         0.00000         0.00000         0.00000         0.00000         0.00000         0.00000         0.00000         0.00000         0.00000         0.00000         0.00000         0.00000         0.00000         0.00000         0.00000         0.00000         0.00000         0.00000         0.00000         0.00000         0.00000         0.00000         0.00000         0.00000         0.00000         0.00000         0.00000         0.00000         0.00000         0.00000         0.00000         0.00000         0.00000         0.00000         0.00000         0.00000         0.00000         0.00000         0.00000         0.00000         0.00000         0.00000         0.00000         0.00000         0.00000         0.00000         0.00000         0.00000         0.00000         0.00000         0.00000         0.00000         0.00000         0.00000         0.00000         0.00000         0.00000         0.00000         0.00000         0.00000         0.00000         0.00000         0.00000         0.00000         0.00000         0.00000         0.00000         0.00000         0.00000         0.00000         0.00000         0.00000         0.00000         0.00000         0.00000         0.00000         0.00000         0.00000         0.00000         0.00000         0.00000         0.00000         0.00000         0.00000         0.00000         0.00000         0.00000         0.00000         0.00000         0.00000         0.00000         0.00000         0.00000         0.00000         0.00000         0.00000         0.00000         0.00000         0.00000         0.00000         0.00000         0.00000         0.00000         0.00000         0.00000         0.00000         0.00000         0.00000         0.00000         0.00000         0.00000         0.00000         0.00000         0.00000         0.00000         0.00000         0.00000         0.00000         0.00000         0.00000         0.00000         0.00000         0.00000         0.00000         0.00000         0.00000         0.00000         0.00000         0.00000         0.00000         0.00000         0.00000         0.00000         0.00000         0.00000         0.00000         0.00000         0.00000         0.00000         0.00000         0.00000         0.00000         0.00000         0.00000         0.00000         0.00000         0.00000         0.00000         0.00000         0.00000         0.00000         0.00000         0.00000         0.00000         0.00000         0.00000         0.00000         0.00000         0.00000         0.00000         0.00000         0.00000         0.00000         0.00000         0.00000         0.00000         0.00000         0.00000         0.00000         0.00000         0.00000         0.00000         0.00000         0.00000         0.00000         0.00000         0.00000         0.00000         0.00000         0.00000         0.00000         0.00000         0.00000         0.00000         0.00000         0.00000         0.00000         0.00000         0.00000         0.00000         0.00000         0.00000         0.00000         0.00000         0.00000         0.00000         0.00000         0.00000         0.00000         0.00000         0.00000         0.00000         0.00000         0.00000         0.00000         0.00000         0.00000         0.00000         0.00000         0.00000         0.00000         0.00000         0.00000         0.00000         0.00000         0.00000         0.00000         0.00000         0.00000    
1
  CONCENTRATION IN LAYER  11 AT END OF TIME STEP  73 IN STRESS PERIOD    1
  ---------------------------------------------------------------------------

 ........................................................................................................................................................................................................................................................................................................................................................................................................................................................................................................................................................................................................................................................................................................................................................................................................................................................................................................................................................................................................................................
   1      0.00000         0.00000         0.00000         0.00000         0.00000         0.00000         0.00000         0.00000         0.00000         0.00000         0.00000         0.00000         0.00000         0.00000         0.00000         0.00000         0.00000         0.00000         0.00000         0.00000         0.00000         0.00000         0.00000         0.00000         0.00000         0.00000         0.00000         0.00000         0.00000         0.00000         0.00000         0.00000         0.00000         0.00000         0.00000         0.00000         0.00000         0.00000         0.00000         0.00000         0.00000         0.00000         0.00000         0.00000         0.00000         0.00000         0.00000         0.00000         0.00000         0.00000         0.00000         0.00000         0.00000         0.00000         0.00000         0.00000         0.00000         0.00000         0.00000         0.00000         0.00000         0.00000         0.00000         0.00000         0.00000         0.00000         0.00000         0.00000         0.00000         0.00000         0.00000         0.00000         0.00000         0.00000         0.00000         0.00000         0.00000         0.00000         0.00000         0.00000         0.00000         0.00000         0.00000         0.00000         0.00000         0.00000         0.00000         0.00000         0.00000         0.00000         0.00000         0.00000         0.00000         0.00000         0.00000         0.00000         0.00000         0.00000         0.00000         0.00000         0.00000         0.00000         0.00000         0.00000         0.00000         0.00000         0.00000         0.00000         0.00000         0.00000         0.00000         0.00000         0.00000         0.00000         0.00000         0.00000         0.00000         0.00000         0.00000         0.00000         0.00000         0.00000         0.00000         0.00000         0.00000         0.00000         0.00000         0.00000         0.00000         0.00000         0.00000         0.00000         0.00000         0.00000         0.00000         0.00000         0.00000         0.00000         0.00000         0.00000         0.00000         0.00000         0.00000         0.00000         0.00000         0.00000         0.00000         0.00000         0.00000         0.00000         0.00000         0.00000         0.00000         0.00000         0.00000         0.00000         0.00000         0.00000         0.00000         0.00000         0.00000         0.00000         0.00000         0.00000         0.00000         0.00000         0.00000         1.00000         1.00000         1.00000         1.00000         0.00000         0.00000         0.00000         0.00000         0.00000         0.00000         0.00000         0.00000         0.00000         0.00000         0.00000         0.00000         0.00000         0.00000         0.00000         0.00000         0.00000         0.00000         0.00000         0.00000         0.00000         0.00000         0.00000         0.00000         0.00000         0.00000         0.00000         0.00000         0.00000         0.00000         0.00000         0.00000         0.00000         0.00000         0.00000         0.00000         0.00000         0.00000         0.00000         0.00000         0.00000         0.00000         0.00000         0.00000         0.00000         0.00000         0.00000         0.00000         0.00000         0.00000         0.00000         0.00000         0.00000         0.00000         0.00000         0.00000         0.00000         0.00000         0.00000         0.00000         0.00000         0.00000         0.00000         0.00000         0.00000         0.00000         0.00000         0.00000         0.00000         0.00000         0.00000         0.00000         0.00000         0.00000         0.00000         0.00000         0.00000         0.00000         0.00000         0.00000         0.00000         0.00000         0.00000         0.00000         0.00000         0.00000         0.00000         0.00000         0.00000         0.00000         0.00000         0.00000         0.00000         0.00000         0.00000         0.00000         0.00000         0.00000         0.00000         0.00000         0.00000         0.00000         0.00000         0.00000         0.00000         0.00000         0.00000         0.00000         0.00000         0.00000         0.00000         0.00000         0.00000         0.00000         0.00000         0.00000         0.00000         0.00000         0.00000         0.00000         0.00000         0.00000         0.00000         0.00000         0.00000         0.00000         0.00000         0.00000         0.00000         0.00000         0.00000         0.00000         0.00000         0.00000         0.00000         0.00000         0.00000         0.00000         0.00000         0.00000         0.00000         0.00000         0.00000         0.00000         0.00000         0.00000         0.00000         0.00000         0.00000         0.00000         0.00000         0.00000         0.00000         0.00000         0.00000         0.00000         0.00000         0.00000         0.00000         0.00000         0.00000         0.00000         0.00000         0.00000         0.00000         0.00000         0.00000         0.00000         0.00000         0.00000         0.00000         0.00000         0.00000         0.00000         0.00000         0.00000         0.00000         0.00000         0.00000         0.00000         0.00000         0.00000         0.00000         0.00000         0.00000         0.00000         0.00000         0.00000         0.00000         0.00000         0.00000         0.00000         0.00000         0.00000         0.00000         0.00000         0.00000         0.00000         0.00000         0.00000         0.00000         0.00000         0.00000         0.00000         0.00000         0.00000         0.00000         0.00000         0.00000         0.00000         0.00000         0.00000         0.00000         0.00000         0.00000         0.00000         0.00000         0.00000         0.00000         0.00000         0.00000         0.00000         0.00000         0.00000         0.00000         0.00000         0.00000         0.00000         0.00000    
1
  CONCENTRATION IN LAYER  12 AT END OF TIME STEP  73 IN STRESS PERIOD    1
  ---------------------------------------------------------------------------

 ........................................................................................................................................................................................................................................................................................................................................................................................................................................................................................................................................................................................................................................................................................................................................................................................................................................................................................................................................................................................................................................
   1      0.00000         0.00000         0.00000         0.00000         0.00000         0.00000         0.00000         0.00000         0.00000         0.00000         0.00000         0.00000         0.00000         0.00000         0.00000         0.00000         0.00000         0.00000         0.00000         0.00000         0.00000         0.00000         0.00000         0.00000         0.00000         0.00000         0.00000         0.00000         0.00000         0.00000         0.00000         0.00000         0.00000         0.00000         0.00000         0.00000         0.00000         0.00000         0.00000         0.00000         0.00000         0.00000         0.00000         0.00000         0.00000         0.00000         0.00000         0.00000         0.00000         0.00000         0.00000         0.00000         0.00000         0.00000         0.00000         0.00000         0.00000         0.00000         0.00000         0.00000         0.00000         0.00000         0.00000         0.00000         0.00000         0.00000         0.00000         0.00000         0.00000         0.00000         0.00000         0.00000         0.00000         0.00000         0.00000         0.00000         0.00000         0.00000         0.00000         0.00000         0.00000         0.00000         0.00000         0.00000         0.00000         0.00000         0.00000         0.00000         0.00000         0.00000         0.00000         0.00000         0.00000         0.00000         0.00000         0.00000         0.00000         0.00000         0.00000         0.00000         0.00000         0.00000         0.00000         0.00000         0.00000         0.00000         0.00000         0.00000         0.00000         0.00000         0.00000         0.00000         0.00000         0.00000         0.00000         0.00000         0.00000         0.00000         0.00000         0.00000         0.00000         0.00000         0.00000         0.00000         0.00000         0.00000         0.00000         0.00000         0.00000         0.00000         0.00000         0.00000         0.00000         0.00000         0.00000         0.00000         0.00000         0.00000         0.00000         0.00000         0.00000         0.00000         0.00000         0.00000         0.00000         0.00000         0.00000         0.00000         0.00000         0.00000         0.00000         0.00000         0.00000         0.00000         0.00000         0.00000         0.00000         0.00000         0.00000         0.00000         0.00000         0.00000         0.00000         0.00000         0.00000         0.00000         0.00000         1.00000         1.00000         1.00000         1.00000         0.00000         0.00000         0.00000         0.00000         0.00000         0.00000         0.00000         0.00000         0.00000         0.00000         0.00000         0.00000         0.00000         0.00000         0.00000         0.00000         0.00000         0.00000         0.00000         0.00000         0.00000         0.00000         0.00000         0.00000         0.00000         0.00000         0.00000         0.00000         0.00000         0.00000         0.00000         0.00000         0.00000         0.00000         0.00000         0.00000         0.00000         0.00000         0.00000         0.00000         0.00000         0.00000         0.00000         0.00000         0.00000         0.00000         0.00000         0.00000         0.00000         0.00000         0.00000         0.00000         0.00000         0.00000         0.00000         0.00000         0.00000         0.00000         0.00000         0.00000         0.00000         0.00000         0.00000         0.00000         0.00000         0.00000         0.00000         0.00000         0.00000         0.00000         0.00000         0.00000         0.00000         0.00000         0.00000         0.00000         0.00000         0.00000         0.00000         0.00000         0.00000         0.00000         0.00000         0.00000         0.00000         0.00000         0.00000         0.00000         0.00000         0.00000         0.00000         0.00000         0.00000         0.00000         0.00000         0.00000         0.00000         0.00000         0.00000         0.00000         0.00000         0.00000         0.00000         0.00000         0.00000         0.00000         0.00000         0.00000         0.00000         0.00000         0.00000         0.00000         0.00000         0.00000         0.00000         0.00000         0.00000         0.00000         0.00000         0.00000         0.00000         0.00000         0.00000         0.00000         0.00000         0.00000         0.00000         0.00000         0.00000         0.00000         0.00000         0.00000         0.00000         0.00000         0.00000         0.00000         0.00000         0.00000         0.00000         0.00000         0.00000         0.00000         0.00000         0.00000         0.00000         0.00000         0.00000         0.00000         0.00000         0.00000         0.00000         0.00000         0.00000         0.00000         0.00000         0.00000         0.00000         0.00000         0.00000         0.00000         0.00000         0.00000         0.00000         0.00000         0.00000         0.00000         0.00000         0.00000         0.00000         0.00000         0.00000         0.00000         0.00000         0.00000         0.00000         0.00000         0.00000         0.00000         0.00000         0.00000         0.00000         0.00000         0.00000         0.00000         0.00000         0.00000         0.00000         0.00000         0.00000         0.00000         0.00000         0.00000         0.00000         0.00000         0.00000         0.00000         0.00000         0.00000         0.00000         0.00000         0.00000         0.00000         0.00000         0.00000         0.00000         0.00000         0.00000         0.00000         0.00000         0.00000         0.00000         0.00000         0.00000         0.00000         0.00000         0.00000         0.00000         0.00000         0.00000         0.00000         0.00000         0.00000         0.00000         0.00000         0.00000         0.00000         0.00000         0.00000         0.00000    
1
  CONCENTRATION IN LAYER  13 AT END OF TIME STEP  73 IN STRESS PERIOD    1
  ---------------------------------------------------------------------------

 ........................................................................................................................................................................................................................................................................................................................................................................................................................................................................................................................................................................................................................................................................................................................................................................................................................................................................................................................................................................................................................................
   1      0.00000         0.00000         0.00000         0.00000         0.00000         0.00000         0.00000         0.00000         0.00000         0.00000         0.00000         0.00000         0.00000         0.00000         0.00000         0.00000         0.00000         0.00000         0.00000         0.00000         0.00000         0.00000         0.00000         0.00000         0.00000         0.00000         0.00000         0.00000         0.00000         0.00000         0.00000         0.00000         0.00000         0.00000         0.00000         0.00000         0.00000         0.00000         0.00000         0.00000         0.00000         0.00000         0.00000         0.00000         0.00000         0.00000         0.00000         0.00000         0.00000         0.00000         0.00000         0.00000         0.00000         0.00000         0.00000         0.00000         0.00000         0.00000         0.00000         0.00000         0.00000         0.00000         0.00000         0.00000         0.00000         0.00000         0.00000         0.00000         0.00000         0.00000         0.00000         0.00000         0.00000         0.00000         0.00000         0.00000         0.00000         0.00000         0.00000         0.00000         0.00000         0.00000         0.00000         0.00000         0.00000         0.00000         0.00000         0.00000         0.00000         0.00000         0.00000         0.00000         0.00000         0.00000         0.00000         0.00000         0.00000         0.00000         0.00000         0.00000         0.00000         0.00000         0.00000         0.00000         0.00000         0.00000         0.00000         0.00000         0.00000         0.00000         0.00000         0.00000         0.00000         0.00000         0.00000         0.00000         0.00000         0.00000         0.00000         0.00000         0.00000         0.00000         0.00000         0.00000         0.00000         0.00000         0.00000         0.00000         0.00000         0.00000         0.00000         0.00000         0.00000         0.00000         0.00000         0.00000         0.00000         0.00000         0.00000         0.00000         0.00000         0.00000         0.00000         0.00000         0.00000         0.00000         0.00000         0.00000         0.00000         0.00000         0.00000         0.00000         0.00000         0.00000         0.00000         0.00000         0.00000         0.00000         0.00000         0.00000         0.00000         0.00000         0.00000         0.00000         0.00000         0.00000         0.00000         1.00000         1.00000         1.00000         1.00000         0.00000         0.00000         0.00000         0.00000         0.00000         0.00000         0.00000         0.00000         0.00000         0.00000         0.00000         0.00000         0.00000         0.00000         0.00000         0.00000         0.00000         0.00000         0.00000         0.00000         0.00000         0.00000         0.00000         0.00000         0.00000         0.00000         0.00000         0.00000         0.00000         0.00000         0.00000         0.00000         0.00000         0.00000         0.00000         0.00000         0.00000         0.00000         0.00000         0.00000         0.00000         0.00000         0.00000         0.00000         0.00000         0.00000         0.00000         0.00000         0.00000         0.00000         0.00000         0.00000         0.00000         0.00000         0.00000         0.00000         0.00000         0.00000         0.00000         0.00000         0.00000         0.00000         0.00000         0.00000         0.00000         0.00000         0.00000         0.00000         0.00000         0.00000         0.00000         0.00000         0.00000         0.00000         0.00000         0.00000         0.00000         0.00000         0.00000         0.00000         0.00000         0.00000         0.00000         0.00000         0.00000         0.00000         0.00000         0.00000         0.00000         0.00000         0.00000         0.00000         0.00000         0.00000         0.00000         0.00000         0.00000         0.00000         0.00000         0.00000         0.00000         0.00000         0.00000         0.00000         0.00000         0.00000         0.00000         0.00000         0.00000         0.00000         0.00000         0.00000         0.00000         0.00000         0.00000         0.00000         0.00000         0.00000         0.00000         0.00000         0.00000         0.00000         0.00000         0.00000         0.00000         0.00000         0.00000         0.00000         0.00000         0.00000         0.00000         0.00000         0.00000         0.00000         0.00000         0.00000         0.00000         0.00000         0.00000         0.00000         0.00000         0.00000         0.00000         0.00000         0.00000         0.00000         0.00000         0.00000         0.00000         0.00000         0.00000         0.00000         0.00000         0.00000         0.00000         0.00000         0.00000         0.00000         0.00000         0.00000         0.00000         0.00000         0.00000         0.00000         0.00000         0.00000         0.00000         0.00000         0.00000         0.00000         0.00000         0.00000         0.00000         0.00000         0.00000         0.00000         0.00000         0.00000         0.00000         0.00000         0.00000         0.00000         0.00000         0.00000         0.00000         0.00000         0.00000         0.00000         0.00000         0.00000         0.00000         0.00000         0.00000         0.00000         0.00000         0.00000         0.00000         0.00000         0.00000         0.00000         0.00000         0.00000         0.00000         0.00000         0.00000         0.00000         0.00000         0.00000         0.00000         0.00000         0.00000         0.00000         0.00000         0.00000         0.00000         0.00000         0.00000         0.00000         0.00000         0.00000         0.00000         0.00000         0.00000         0.00000         0.00000         0.00000         0.00000         0.00000         0.00000    
1
  CONCENTRATION IN LAYER  14 AT END OF TIME STEP  73 IN STRESS PERIOD    1
  ---------------------------------------------------------------------------

 ........................................................................................................................................................................................................................................................................................................................................................................................................................................................................................................................................................................................................................................................................................................................................................................................................................................................................................................................................................................................................................................
   1      0.00000         0.00000         0.00000         0.00000         0.00000         0.00000         0.00000         0.00000         0.00000         0.00000         0.00000         0.00000         0.00000         0.00000         0.00000         0.00000         0.00000         0.00000         0.00000         0.00000         0.00000         0.00000         0.00000         0.00000         0.00000         0.00000         0.00000         0.00000         0.00000         0.00000         0.00000         0.00000         0.00000         0.00000         0.00000         0.00000         0.00000         0.00000         0.00000         0.00000         0.00000         0.00000         0.00000         0.00000         0.00000         0.00000         0.00000         0.00000         0.00000         0.00000         0.00000         0.00000         0.00000         0.00000         0.00000         0.00000         0.00000         0.00000         0.00000         0.00000         0.00000         0.00000         0.00000         0.00000         0.00000         0.00000         0.00000         0.00000         0.00000         0.00000         0.00000         0.00000         0.00000         0.00000         0.00000         0.00000         0.00000         0.00000         0.00000         0.00000         0.00000         0.00000         0.00000         0.00000         0.00000         0.00000         0.00000         0.00000         0.00000         0.00000         0.00000         0.00000         0.00000         0.00000         0.00000         0.00000         0.00000         0.00000         0.00000         0.00000         0.00000         0.00000         0.00000         0.00000         0.00000         0.00000         0.00000         0.00000         0.00000         0.00000         0.00000         0.00000         0.00000         0.00000         0.00000         0.00000         0.00000         0.00000         0.00000         0.00000         0.00000         0.00000         0.00000         0.00000         0.00000         0.00000         0.00000         0.00000         0.00000         0.00000         0.00000         0.00000         0.00000         0.00000         0.00000         0.00000         0.00000         0.00000         0.00000         0.00000         0.00000         0.00000         0.00000         0.00000         0.00000         0.00000         0.00000         0.00000         0.00000         0.00000         0.00000         0.00000         0.00000         0.00000         0.00000         0.00000         0.00000         0.00000         0.00000         0.00000         0.00000         0.00000         0.00000         0.00000         0.00000         0.00000         0.00000         1.00000         1.00000         1.00000         1.00000         0.00000         0.00000         0.00000         0.00000         0.00000         0.00000         0.00000         0.00000         0.00000         0.00000         0.00000         0.00000         0.00000         0.00000         0.00000         0.00000         0.00000         0.00000         0.00000         0.00000         0.00000         0.00000         0.00000         0.00000         0.00000         0.00000         0.00000         0.00000         0.00000         0.00000         0.00000         0.00000         0.00000         0.00000         0.00000         0.00000         0.00000         0.00000         0.00000         0.00000         0.00000         0.00000         0.00000         0.00000         0.00000         0.00000         0.00000         0.00000         0.00000         0.00000         0.00000         0.00000         0.00000         0.00000         0.00000         0.00000         0.00000         0.00000         0.00000         0.00000         0.00000         0.00000         0.00000         0.00000         0.00000         0.00000         0.00000         0.00000         0.00000         0.00000         0.00000         0.00000         0.00000         0.00000         0.00000         0.00000         0.00000         0.00000         0.00000         0.00000         0.00000         0.00000         0.00000         0.00000         0.00000         0.00000         0.00000         0.00000         0.00000         0.00000         0.00000         0.00000         0.00000         0.00000         0.00000         0.00000         0.00000         0.00000         0.00000         0.00000         0.00000         0.00000         0.00000         0.00000         0.00000         0.00000         0.00000         0.00000         0.00000         0.00000         0.00000         0.00000         0.00000         0.00000         0.00000         0.00000         0.00000         0.00000         0.00000         0.00000         0.00000         0.00000         0.00000         0.00000         0.00000         0.00000         0.00000         0.00000         0.00000         0.00000         0.00000         0.00000         0.00000         0.00000         0.00000         0.00000         0.00000         0.00000         0.00000         0.00000         0.00000         0.00000         0.00000         0.00000         0.00000         0.00000         0.00000         0.00000         0.00000         0.00000         0.00000         0.00000         0.00000         0.00000         0.00000         0.00000         0.00000         0.00000         0.00000         0.00000         0.00000         0.00000         0.00000         0.00000         0.00000         0.00000         0.00000         0.00000         0.00000         0.00000         0.00000         0.00000         0.00000         0.00000         0.00000         0.00000         0.00000         0.00000         0.00000         0.00000         0.00000         0.00000         0.00000         0.00000         0.00000         0.00000         0.00000         0.00000         0.00000         0.00000         0.00000         0.00000         0.00000         0.00000         0.00000         0.00000         0.00000         0.00000         0.00000         0.00000         0.00000         0.00000         0.00000         0.00000         0.00000         0.00000         0.00000         0.00000         0.00000         0.00000         0.00000         0.00000         0.00000         0.00000         0.00000         0.00000         0.00000         0.00000         0.00000         0.00000         0.00000         0.00000         0.00000         0.00000         0.00000         0.00000         0.00000         0.00000         0.00000    
1
  CONCENTRATION IN LAYER  15 AT END OF TIME STEP  73 IN STRESS PERIOD    1
  ---------------------------------------------------------------------------

 ........................................................................................................................................................................................................................................................................................................................................................................................................................................................................................................................................................................................................................................................................................................................................................................................................................................................................................................................................................................................................................................
   1      0.00000         0.00000         0.00000         0.00000         0.00000         0.00000         0.00000         0.00000         0.00000         0.00000         0.00000         0.00000         0.00000         0.00000         0.00000         0.00000         0.00000         0.00000         0.00000         0.00000         0.00000         0.00000         0.00000         0.00000         0.00000         0.00000         0.00000         0.00000         0.00000         0.00000         0.00000         0.00000         0.00000         0.00000         0.00000         0.00000         0.00000         0.00000         0.00000         0.00000         0.00000         0.00000         0.00000         0.00000         0.00000         0.00000         0.00000         0.00000         0.00000         0.00000         0.00000         0.00000         0.00000         0.00000         0.00000         0.00000         0.00000         0.00000         0.00000         0.00000         0.00000         0.00000         0.00000         0.00000         0.00000         0.00000         0.00000         0.00000         0.00000         0.00000         0.00000         0.00000         0.00000         0.00000         0.00000         0.00000         0.00000         0.00000         0.00000         0.00000         0.00000         0.00000         0.00000         0.00000         0.00000         0.00000         0.00000         0.00000         0.00000         0.00000         0.00000         0.00000         0.00000         0.00000         0.00000         0.00000         0.00000         0.00000         0.00000         0.00000         0.00000         0.00000         0.00000         0.00000         0.00000         0.00000         0.00000         0.00000         0.00000         0.00000         0.00000         0.00000         0.00000         0.00000         0.00000         0.00000         0.00000         0.00000         0.00000         0.00000         0.00000         0.00000         0.00000         0.00000         0.00000         0.00000         0.00000         0.00000         0.00000         0.00000         0.00000         0.00000         0.00000         0.00000         0.00000         0.00000         0.00000         0.00000         0.00000         0.00000         0.00000         0.00000         0.00000         0.00000         0.00000         0.00000         0.00000         0.00000         0.00000         0.00000         0.00000         0.00000         0.00000         0.00000         0.00000         0.00000         0.00000         0.00000         0.00000         0.00000         0.00000         0.00000         0.00000         0.00000         0.00000         0.00000         0.00000         1.00000         1.00000         1.00000         1.00000         0.00000         0.00000         0.00000         0.00000         0.00000         0.00000         0.00000         0.00000         0.00000         0.00000         0.00000         0.00000         0.00000         0.00000         0.00000         0.00000         0.00000         0.00000         0.00000         0.00000         0.00000         0.00000         0.00000         0.00000         0.00000         0.00000         0.00000         0.00000         0.00000         0.00000         0.00000         0.00000         0.00000         0.00000         0.00000         0.00000         0.00000         0.00000         0.00000         0.00000         0.00000         0.00000         0.00000         0.00000         0.00000         0.00000         0.00000         0.00000         0.00000         0.00000         0.00000         0.00000         0.00000         0.00000         0.00000         0.00000         0.00000         0.00000         0.00000         0.00000         0.00000         0.00000         0.00000         0.00000         0.00000         0.00000         0.00000         0.00000         0.00000         0.00000         0.00000         0.00000         0.00000         0.00000         0.00000         0.00000         0.00000         0.00000         0.00000         0.00000         0.00000         0.00000         0.00000         0.00000         0.00000         0.00000         0.00000         0.00000         0.00000         0.00000         0.00000         0.00000         0.00000         0.00000         0.00000         0.00000         0.00000         0.00000         0.00000         0.00000         0.00000         0.00000         0.00000         0.00000         0.00000         0.00000         0.00000         0.00000         0.00000         0.00000         0.00000         0.00000         0.00000         0.00000         0.00000         0.00000         0.00000         0.00000         0.00000         0.00000         0.00000         0.00000         0.00000         0.00000         0.00000         0.00000         0.00000         0.00000         0.00000         0.00000         0.00000         0.00000         0.00000         0.00000         0.00000         0.00000         0.00000         0.00000         0.00000         0.00000         0.00000         0.00000         0.00000         0.00000         0.00000         0.00000         0.00000         0.00000         0.00000         0.00000         0.00000         0.00000         0.00000         0.00000         0.00000         0.00000         0.00000         0.00000         0.00000         0.00000         0.00000         0.00000         0.00000         0.00000         0.00000         0.00000         0.00000         0.00000         0.00000         0.00000         0.00000         0.00000         0.00000         0.00000         0.00000         0.00000         0.00000         0.00000         0.00000         0.00000         0.00000         0.00000         0.00000         0.00000         0.00000         0.00000         0.00000         0.00000         0.00000         0.00000         0.00000         0.00000         0.00000         0.00000         0.00000         0.00000         0.00000         0.00000         0.00000         0.00000         0.00000         0.00000         0.00000         0.00000         0.00000         0.00000         0.00000         0.00000         0.00000         0.00000         0.00000         0.00000         0.00000         0.00000         0.00000         0.00000         0.00000         0.00000         0.00000         0.00000         0.00000         0.00000         0.00000         0.00000         0.00000         0.00000         0.00000         0.00000         0.00000    
1
  CONCENTRATION IN LAYER  16 AT END OF TIME STEP  73 IN STRESS PERIOD    1
  ---------------------------------------------------------------------------

 ........................................................................................................................................................................................................................................................................................................................................................................................................................................................................................................................................................................................................................................................................................................................................................................................................................................................................................................................................................................................................................................
   1      0.00000         0.00000         0.00000         0.00000         0.00000         0.00000         0.00000         0.00000         0.00000         0.00000         0.00000         0.00000         0.00000         0.00000         0.00000         0.00000         0.00000         0.00000         0.00000         0.00000         0.00000         0.00000         0.00000         0.00000         0.00000         0.00000         0.00000         0.00000         0.00000         0.00000         0.00000         0.00000         0.00000         0.00000         0.00000         0.00000         0.00000         0.00000         0.00000         0.00000         0.00000         0.00000         0.00000         0.00000         0.00000         0.00000         0.00000         0.00000         0.00000         0.00000         0.00000         0.00000         0.00000         0.00000         0.00000         0.00000         0.00000         0.00000         0.00000         0.00000         0.00000         0.00000         0.00000         0.00000         0.00000         0.00000         0.00000         0.00000         0.00000         0.00000         0.00000         0.00000         0.00000         0.00000         0.00000         0.00000         0.00000         0.00000         0.00000         0.00000         0.00000         0.00000         0.00000         0.00000         0.00000         0.00000         0.00000         0.00000         0.00000         0.00000         0.00000         0.00000         0.00000         0.00000         0.00000         0.00000         0.00000         0.00000         0.00000         0.00000         0.00000         0.00000         0.00000         0.00000         0.00000         0.00000         0.00000         0.00000         0.00000         0.00000         0.00000         0.00000         0.00000         0.00000         0.00000         0.00000         0.00000         0.00000         0.00000         0.00000         0.00000         0.00000         0.00000         0.00000         0.00000         0.00000         0.00000         0.00000         0.00000         0.00000         0.00000         0.00000         0.00000         0.00000         0.00000         0.00000         0.00000         0.00000         0.00000         0.00000         0.00000         0.00000         0.00000         0.00000         0.00000         0.00000         0.00000         0.00000         0.00000         0.00000         0.00000         0.00000         0.00000         0.00000         0.00000         0.00000         0.00000         0.00000         0.00000         0.00000         0.00000         0.00000         0.00000         0.00000         0.00000         0.00000         0.00000         1.00000         1.00000         1.00000         1.00000         0.00000         0.00000         0.00000         0.00000         0.00000         0.00000         0.00000         0.00000         0.00000         0.00000         0.00000         0.00000         0.00000         0.00000         0.00000         0.00000         0.00000         0.00000         0.00000         0.00000         0.00000         0.00000         0.00000         0.00000         0.00000         0.00000         0.00000         0.00000         0.00000         0.00000         0.00000         0.00000         0.00000         0.00000         0.00000         0.00000         0.00000         0.00000         0.00000         0.00000         0.00000         0.00000         0.00000         0.00000         0.00000         0.00000         0.00000         0.00000         0.00000         0.00000         0.00000         0.00000         0.00000         0.00000         0.00000         0.00000         0.00000         0.00000         0.00000         0.00000         0.00000         0.00000         0.00000         0.00000         0.00000         0.00000         0.00000         0.00000         0.00000         0.00000         0.00000         0.00000         0.00000         0.00000         0.00000         0.00000         0.00000         0.00000         0.00000         0.00000         0.00000         0.00000         0.00000         0.00000         0.00000         0.00000         0.00000         0.00000         0.00000         0.00000         0.00000         0.00000         0.00000         0.00000         0.00000         0.00000         0.00000         0.00000         0.00000         0.00000         0.00000         0.00000         0.00000         0.00000         0.00000         0.00000         0.00000         0.00000         0.00000         0.00000         0.00000         0.00000         0.00000         0.00000         0.00000         0.00000         0.00000         0.00000         0.00000         0.00000         0.00000         0.00000         0.00000         0.00000         0.00000         0.00000         0.00000         0.00000         0.00000         0.00000         0.00000         0.00000         0.00000         0.00000         0.00000         0.00000         0.00000         0.00000         0.00000         0.00000         0.00000         0.00000         0.00000         0.00000         0.00000         0.00000         0.00000         0.00000         0.00000         0.00000         0.00000         0.00000         0.00000         0.00000         0.00000         0.00000         0.00000         0.00000         0.00000         0.00000         0.00000         0.00000         0.00000         0.00000         0.00000         0.00000         0.00000         0.00000         0.00000         0.00000         0.00000         0.00000         0.00000         0.00000         0.00000         0.00000         0.00000         0.00000         0.00000         0.00000         0.00000         0.00000         0.00000         0.00000         0.00000         0.00000         0.00000         0.00000         0.00000         0.00000         0.00000         0.00000         0.00000         0.00000         0.00000         0.00000         0.00000         0.00000         0.00000         0.00000         0.00000         0.00000         0.00000         0.00000         0.00000         0.00000         0.00000         0.00000         0.00000         0.00000         0.00000         0.00000         0.00000         0.00000         0.00000         0.00000         0.00000         0.00000         0.00000         0.00000         0.00000         0.00000         0.00000         0.00000         0.00000         0.00000         0.00000         0.00000         0.00000    
1
  CONCENTRATION IN LAYER  17 AT END OF TIME STEP  73 IN STRESS PERIOD    1
  ---------------------------------------------------------------------------

 ........................................................................................................................................................................................................................................................................................................................................................................................................................................................................................................................................................................................................................................................................................................................................................................................................................................................................................................................................................................................................................................
   1      0.00000         0.00000         0.00000         0.00000         0.00000         0.00000         0.00000         0.00000         0.00000         0.00000         0.00000         0.00000         0.00000         0.00000         0.00000         0.00000         0.00000         0.00000         0.00000         0.00000         0.00000         0.00000         0.00000         0.00000         0.00000         0.00000         0.00000         0.00000         0.00000         0.00000         0.00000         0.00000         0.00000         0.00000         0.00000         0.00000         0.00000         0.00000         0.00000         0.00000         0.00000         0.00000         0.00000         0.00000         0.00000         0.00000         0.00000         0.00000         0.00000         0.00000         0.00000         0.00000         0.00000         0.00000         0.00000         0.00000         0.00000         0.00000         0.00000         0.00000         0.00000         0.00000         0.00000         0.00000         0.00000         0.00000         0.00000         0.00000         0.00000         0.00000         0.00000         0.00000         0.00000         0.00000         0.00000         0.00000         0.00000         0.00000         0.00000         0.00000         0.00000         0.00000         0.00000         0.00000         0.00000         0.00000         0.00000         0.00000         0.00000         0.00000         0.00000         0.00000         0.00000         0.00000         0.00000         0.00000         0.00000         0.00000         0.00000         0.00000         0.00000         0.00000         0.00000         0.00000         0.00000         0.00000         0.00000         0.00000         0.00000         0.00000         0.00000         0.00000         0.00000         0.00000         0.00000         0.00000         0.00000         0.00000         0.00000         0.00000         0.00000         0.00000         0.00000         0.00000         0.00000         0.00000         0.00000         0.00000         0.00000         0.00000         0.00000         0.00000         0.00000         0.00000         0.00000         0.00000         0.00000         0.00000         0.00000         0.00000         0.00000         0.00000         0.00000         0.00000         0.00000         0.00000         0.00000         0.00000         0.00000         0.00000         0.00000         0.00000         0.00000         0.00000         0.00000         0.00000         0.00000         0.00000         0.00000         0.00000         0.00000         0.00000         0.00000         0.00000         0.00000         0.00000         0.00000         1.00000         1.00000         1.00000         1.00000         0.00000         0.00000         0.00000         0.00000         0.00000         0.00000         0.00000         0.00000         0.00000         0.00000         0.00000         0.00000         0.00000         0.00000         0.00000         0.00000         0.00000         0.00000         0.00000         0.00000         0.00000         0.00000         0.00000         0.00000         0.00000         0.00000         0.00000         0.00000         0.00000         0.00000         0.00000         0.00000         0.00000         0.00000         0.00000         0.00000         0.00000         0.00000         0.00000         0.00000         0.00000         0.00000         0.00000         0.00000         0.00000         0.00000         0.00000         0.00000         0.00000         0.00000         0.00000         0.00000         0.00000         0.00000         0.00000         0.00000         0.00000         0.00000         0.00000         0.00000         0.00000         0.00000         0.00000         0.00000         0.00000         0.00000         0.00000         0.00000         0.00000         0.00000         0.00000         0.00000         0.00000         0.00000         0.00000         0.00000         0.00000         0.00000         0.00000         0.00000         0.00000         0.00000         0.00000         0.00000         0.00000         0.00000         0.00000         0.00000         0.00000         0.00000         0.00000         0.00000         0.00000         0.00000         0.00000         0.00000         0.00000         0.00000         0.00000         0.00000         0.00000         0.00000         0.00000         0.00000         0.00000         0.00000         0.00000         0.00000         0.00000         0.00000         0.00000         0.00000         0.00000         0.00000         0.00000         0.00000         0.00000         0.00000         0.00000         0.00000         0.00000         0.00000         0.00000         0.00000         0.00000         0.00000         0.00000         0.00000         0.00000         0.00000         0.00000         0.00000         0.00000         0.00000         0.00000         0.00000         0.00000         0.00000         0.00000         0.00000         0.00000         0.00000         0.00000         0.00000         0.00000         0.00000         0.00000         0.00000         0.00000         0.00000         0.00000         0.00000         0.00000         0.00000         0.00000         0.00000         0.00000         0.00000         0.00000         0.00000         0.00000         0.00000         0.00000         0.00000         0.00000         0.00000         0.00000         0.00000         0.00000         0.00000         0.00000         0.00000         0.00000         0.00000         0.00000         0.00000         0.00000         0.00000         0.00000         0.00000         0.00000         0.00000         0.00000         0.00000         0.00000         0.00000         0.00000         0.00000         0.00000         0.00000         0.00000         0.00000         0.00000         0.00000         0.00000         0.00000         0.00000         0.00000         0.00000         0.00000         0.00000         0.00000         0.00000         0.00000         0.00000         0.00000         0.00000         0.00000         0.00000         0.00000         0.00000         0.00000         0.00000         0.00000         0.00000         0.00000         0.00000         0.00000         0.00000         0.00000         0.00000         0.00000         0.00000         0.00000         0.00000         0.00000         0.00000         0.00000         0.00000    
1
  CONCENTRATION IN LAYER  18 AT END OF TIME STEP  73 IN STRESS PERIOD    1
  ---------------------------------------------------------------------------

 ........................................................................................................................................................................................................................................................................................................................................................................................................................................................................................................................................................................................................................................................................................................................................................................................................................................................................................................................................................................................................................................
   1      0.00000         0.00000         0.00000         0.00000         0.00000         0.00000         0.00000         0.00000         0.00000         0.00000         0.00000         0.00000         0.00000         0.00000         0.00000         0.00000         0.00000         0.00000         0.00000         0.00000         0.00000         0.00000         0.00000         0.00000         0.00000         0.00000         0.00000         0.00000         0.00000         0.00000         0.00000         0.00000         0.00000         0.00000         0.00000         0.00000         0.00000         0.00000         0.00000         0.00000         0.00000         0.00000         0.00000         0.00000         0.00000         0.00000         0.00000         0.00000         0.00000         0.00000         0.00000         0.00000         0.00000         0.00000         0.00000         0.00000         0.00000         0.00000         0.00000         0.00000         0.00000         0.00000         0.00000         0.00000         0.00000         0.00000         0.00000         0.00000         0.00000         0.00000         0.00000         0.00000         0.00000         0.00000         0.00000         0.00000         0.00000         0.00000         0.00000         0.00000         0.00000         0.00000         0.00000         0.00000         0.00000         0.00000         0.00000         0.00000         0.00000         0.00000         0.00000         0.00000         0.00000         0.00000         0.00000         0.00000         0.00000         0.00000         0.00000         0.00000         0.00000         0.00000         0.00000         0.00000         0.00000         0.00000         0.00000         0.00000         0.00000         0.00000         0.00000         0.00000         0.00000         0.00000         0.00000         0.00000         0.00000         0.00000         0.00000         0.00000         0.00000         0.00000         0.00000         0.00000         0.00000         0.00000         0.00000         0.00000         0.00000         0.00000         0.00000         0.00000         0.00000         0.00000         0.00000         0.00000         0.00000         0.00000         0.00000         0.00000         0.00000         0.00000         0.00000         0.00000         0.00000         0.00000         0.00000         0.00000         0.00000         0.00000         0.00000         0.00000         0.00000         0.00000         0.00000         0.00000         0.00000         0.00000         0.00000         0.00000         0.00000         0.00000         0.00000         0.00000         0.00000         0.00000         0.00000         1.00000         1.00000         1.00000         1.00000         0.00000         0.00000         0.00000         0.00000         0.00000         0.00000         0.00000         0.00000         0.00000         0.00000         0.00000         0.00000         0.00000         0.00000         0.00000         0.00000         0.00000         0.00000         0.00000         0.00000         0.00000         0.00000         0.00000         0.00000         0.00000         0.00000         0.00000         0.00000         0.00000         0.00000         0.00000         0.00000         0.00000         0.00000         0.00000         0.00000         0.00000         0.00000         0.00000         0.00000         0.00000         0.00000         0.00000         0.00000         0.00000         0.00000         0.00000         0.00000         0.00000         0.00000         0.00000         0.00000         0.00000         0.00000         0.00000         0.00000         0.00000         0.00000         0.00000         0.00000         0.00000         0.00000         0.00000         0.00000         0.00000         0.00000         0.00000         0.00000         0.00000         0.00000         0.00000         0.00000         0.00000         0.00000         0.00000         0.00000         0.00000         0.00000         0.00000         0.00000         0.00000         0.00000         0.00000         0.00000         0.00000         0.00000         0.00000         0.00000         0.00000         0.00000         0.00000         0.00000         0.00000         0.00000         0.00000         0.00000         0.00000         0.00000         0.00000         0.00000         0.00000         0.00000         0.00000         0.00000         0.00000         0.00000         0.00000         0.00000         0.00000         0.00000         0.00000         0.00000         0.00000         0.00000         0.00000         0.00000         0.00000         0.00000         0.00000         0.00000         0.00000         0.00000         0.00000         0.00000         0.00000         0.00000         0.00000         0.00000         0.00000         0.00000         0.00000         0.00000         0.00000         0.00000         0.00000         0.00000         0.00000         0.00000         0.00000         0.00000         0.00000         0.00000         0.00000         0.00000         0.00000         0.00000         0.00000         0.00000         0.00000         0.00000         0.00000         0.00000         0.00000         0.00000         0.00000         0.00000         0.00000         0.00000         0.00000         0.00000         0.00000         0.00000         0.00000         0.00000         0.00000         0.00000         0.00000         0.00000         0.00000         0.00000         0.00000         0.00000         0.00000         0.00000         0.00000         0.00000         0.00000         0.00000         0.00000         0.00000         0.00000         0.00000         0.00000         0.00000         0.00000         0.00000         0.00000         0.00000         0.00000         0.00000         0.00000         0.00000         0.00000         0.00000         0.00000         0.00000         0.00000         0.00000         0.00000         0.00000         0.00000         0.00000         0.00000         0.00000         0.00000         0.00000         0.00000         0.00000         0.00000         0.00000         0.00000         0.00000         0.00000         0.00000         0.00000         0.00000         0.00000         0.00000         0.00000         0.00000         0.00000         0.00000         0.00000         0.00000         0.00000         0.00000         0.00000         0.00000         0.00000    
1
  CONCENTRATION IN LAYER  19 AT END OF TIME STEP  73 IN STRESS PERIOD    1
  ---------------------------------------------------------------------------

 ........................................................................................................................................................................................................................................................................................................................................................................................................................................................................................................................................................................................................................................................................................................................................................................................................................................................................................................................................................................................................................................
   1      0.00000         0.00000         0.00000         0.00000         0.00000         0.00000         0.00000         0.00000         0.00000         0.00000         0.00000         0.00000         0.00000         0.00000         0.00000         0.00000         0.00000         0.00000         0.00000         0.00000         0.00000         0.00000         0.00000         0.00000         0.00000         0.00000         0.00000         0.00000         0.00000         0.00000         0.00000         0.00000         0.00000         0.00000         0.00000         0.00000         0.00000         0.00000         0.00000         0.00000         0.00000         0.00000         0.00000         0.00000         0.00000         0.00000         0.00000         0.00000         0.00000         0.00000         0.00000         0.00000         0.00000         0.00000         0.00000         0.00000         0.00000         0.00000         0.00000         0.00000         0.00000         0.00000         0.00000         0.00000         0.00000         0.00000         0.00000         0.00000         0.00000         0.00000         0.00000         0.00000         0.00000         0.00000         0.00000         0.00000         0.00000         0.00000         0.00000         0.00000         0.00000         0.00000         0.00000         0.00000         0.00000         0.00000         0.00000         0.00000         0.00000         0.00000         0.00000         0.00000         0.00000         0.00000         0.00000         0.00000         0.00000         0.00000         0.00000         0.00000         0.00000         0.00000         0.00000         0.00000         0.00000         0.00000         0.00000         0.00000         0.00000         0.00000         0.00000         0.00000         0.00000         0.00000         0.00000         0.00000         0.00000         0.00000         0.00000         0.00000         0.00000         0.00000         0.00000         0.00000         0.00000         0.00000         0.00000         0.00000         0.00000         0.00000         0.00000         0.00000         0.00000         0.00000         0.00000         0.00000         0.00000         0.00000         0.00000         0.00000         0.00000         0.00000         0.00000         0.00000         0.00000         0.00000         0.00000         0.00000         0.00000         0.00000         0.00000         0.00000         0.00000         0.00000         0.00000         0.00000         0.00000         0.00000         0.00000         0.00000         0.00000         0.00000         0.00000         0.00000         0.00000         0.00000         0.00000         1.00000         1.00000         1.00000         1.00000         0.00000         0.00000         0.00000         0.00000         0.00000         0.00000         0.00000         0.00000         0.00000         0.00000         0.00000         0.00000         0.00000         0.00000         0.00000         0.00000         0.00000         0.00000         0.00000         0.00000         0.00000         0.00000         0.00000         0.00000         0.00000         0.00000         0.00000         0.00000         0.00000         0.00000         0.00000         0.00000         0.00000         0.00000         0.00000         0.00000         0.00000         0.00000         0.00000         0.00000         0.00000         0.00000         0.00000         0.00000         0.00000         0.00000         0.00000         0.00000         0.00000         0.00000         0.00000         0.00000         0.00000         0.00000         0.00000         0.00000         0.00000         0.00000         0.00000         0.00000         0.00000         0.00000         0.00000         0.00000         0.00000         0.00000         0.00000         0.00000         0.00000         0.00000         0.00000         0.00000         0.00000         0.00000         0.00000         0.00000         0.00000         0.00000         0.00000         0.00000         0.00000         0.00000         0.00000         0.00000         0.00000         0.00000         0.00000         0.00000         0.00000         0.00000         0.00000         0.00000         0.00000         0.00000         0.00000         0.00000         0.00000         0.00000         0.00000         0.00000         0.00000         0.00000         0.00000         0.00000         0.00000         0.00000         0.00000         0.00000         0.00000         0.00000         0.00000         0.00000         0.00000         0.00000         0.00000         0.00000         0.00000         0.00000         0.00000         0.00000         0.00000         0.00000         0.00000         0.00000         0.00000         0.00000         0.00000         0.00000         0.00000         0.00000         0.00000         0.00000         0.00000         0.00000         0.00000         0.00000         0.00000         0.00000         0.00000         0.00000         0.00000         0.00000         0.00000         0.00000         0.00000         0.00000         0.00000         0.00000         0.00000         0.00000         0.00000         0.00000         0.00000         0.00000         0.00000         0.00000         0.00000         0.00000         0.00000         0.00000         0.00000         0.00000         0.00000         0.00000         0.00000         0.00000         0.00000         0.00000         0.00000         0.00000         0.00000         0.00000         0.00000         0.00000         0.00000         0.00000         0.00000         0.00000         0.00000         0.00000         0.00000         0.00000         0.00000         0.00000         0.00000         0.00000         0.00000         0.00000         0.00000         0.00000         0.00000         0.00000         0.00000         0.00000         0.00000         0.00000         0.00000         0.00000         0.00000         0.00000         0.00000         0.00000         0.00000         0.00000         0.00000         0.00000         0.00000         0.00000         0.00000         0.00000         0.00000         0.00000         0.00000         0.00000         0.00000         0.00000         0.00000         0.00000         0.00000         0.00000         0.00000         0.00000         0.00000         0.00000         0.00000         0.00000         0.00000         0.00000         0.00000    
1
  CONCENTRATION IN LAYER  20 AT END OF TIME STEP  73 IN STRESS PERIOD    1
  ---------------------------------------------------------------------------

 ........................................................................................................................................................................................................................................................................................................................................................................................................................................................................................................................................................................................................................................................................................................................................................................................................................................................................................................................................................................................................................................
   1      0.00000         0.00000         0.00000         0.00000         0.00000         0.00000         0.00000         0.00000         0.00000         0.00000         0.00000         0.00000         0.00000         0.00000         0.00000         0.00000         0.00000         0.00000         0.00000         0.00000         0.00000         0.00000         0.00000         0.00000         0.00000         0.00000         0.00000         0.00000         0.00000         0.00000         0.00000         0.00000         0.00000         0.00000         0.00000         0.00000         0.00000         0.00000         0.00000         0.00000         0.00000         0.00000         0.00000         0.00000         0.00000         0.00000         0.00000         0.00000         0.00000         0.00000         0.00000         0.00000         0.00000         0.00000         0.00000         0.00000         0.00000         0.00000         0.00000         0.00000         0.00000         0.00000         0.00000         0.00000         0.00000         0.00000         0.00000         0.00000         0.00000         0.00000         0.00000         0.00000         0.00000         0.00000         0.00000         0.00000         0.00000         0.00000         0.00000         0.00000         0.00000         0.00000         0.00000         0.00000         0.00000         0.00000         0.00000         0.00000         0.00000         0.00000         0.00000         0.00000         0.00000         0.00000         0.00000         0.00000         0.00000         0.00000         0.00000         0.00000         0.00000         0.00000         0.00000         0.00000         0.00000         0.00000         0.00000         0.00000         0.00000         0.00000         0.00000         0.00000         0.00000         0.00000         0.00000         0.00000         0.00000         0.00000         0.00000         0.00000         0.00000         0.00000         0.00000         0.00000         0.00000         0.00000         0.00000         0.00000         0.00000         0.00000         0.00000         0.00000         0.00000         0.00000         0.00000         0.00000         0.00000         0.00000         0.00000         0.00000         0.00000         0.00000         0.00000         0.00000         0.00000         0.00000         0.00000         0.00000         0.00000         0.00000         0.00000         0.00000         0.00000         0.00000         0.00000         0.00000         0.00000         0.00000         0.00000         0.00000         0.00000         0.00000         0.00000         0.00000         0.00000         0.00000         0.00000         1.00000         1.00000         1.00000         1.00000         0.00000         0.00000         0.00000         0.00000         0.00000         0.00000         0.00000         0.00000         0.00000         0.00000         0.00000         0.00000         0.00000         0.00000         0.00000         0.00000         0.00000         0.00000         0.00000         0.00000         0.00000         0.00000         0.00000         0.00000         0.00000         0.00000         0.00000         0.00000         0.00000         0.00000         0.00000         0.00000         0.00000         0.00000         0.00000         0.00000         0.00000         0.00000         0.00000         0.00000         0.00000         0.00000         0.00000         0.00000         0.00000         0.00000         0.00000         0.00000         0.00000         0.00000         0.00000         0.00000         0.00000         0.00000         0.00000         0.00000         0.00000         0.00000         0.00000         0.00000         0.00000         0.00000         0.00000         0.00000         0.00000         0.00000         0.00000         0.00000         0.00000         0.00000         0.00000         0.00000         0.00000         0.00000         0.00000         0.00000         0.00000         0.00000         0.00000         0.00000         0.00000         0.00000         0.00000         0.00000         0.00000         0.00000         0.00000         0.00000         0.00000         0.00000         0.00000         0.00000         0.00000         0.00000         0.00000         0.00000         0.00000         0.00000         0.00000         0.00000         0.00000         0.00000         0.00000         0.00000         0.00000         0.00000         0.00000         0.00000         0.00000         0.00000         0.00000         0.00000         0.00000         0.00000         0.00000         0.00000         0.00000         0.00000         0.00000         0.00000         0.00000         0.00000         0.00000         0.00000         0.00000         0.00000         0.00000         0.00000         0.00000         0.00000         0.00000         0.00000         0.00000         0.00000         0.00000         0.00000         0.00000         0.00000         0.00000         0.00000         0.00000         0.00000         0.00000         0.00000         0.00000         0.00000         0.00000         0.00000         0.00000         0.00000         0.00000         0.00000         0.00000         0.00000         0.00000         0.00000         0.00000         0.00000         0.00000         0.00000         0.00000         0.00000         0.00000         0.00000         0.00000         0.00000         0.00000         0.00000         0.00000         0.00000         0.00000         0.00000         0.00000         0.00000         0.00000         0.00000         0.00000         0.00000         0.00000         0.00000         0.00000         0.00000         0.00000         0.00000         0.00000         0.00000         0.00000         0.00000         0.00000         0.00000         0.00000         0.00000         0.00000         0.00000         0.00000         0.00000         0.00000         0.00000         0.00000         0.00000         0.00000         0.00000         0.00000         0.00000         0.00000         0.00000         0.00000         0.00000         0.00000         0.00000         0.00000         0.00000         0.00000         0.00000         0.00000         0.00000         0.00000         0.00000         0.00000         0.00000         0.00000         0.00000         0.00000         0.00000         0.00000         0.00000         0.00000         0.00000         0.00000    
1
  CONCENTRATION IN LAYER  21 AT END OF TIME STEP  73 IN STRESS PERIOD    1
  ---------------------------------------------------------------------------

 ........................................................................................................................................................................................................................................................................................................................................................................................................................................................................................................................................................................................................................................................................................................................................................................................................................................................................................................................................................................................................................................
   1      0.00000         0.00000         0.00000         0.00000         0.00000         0.00000         0.00000         0.00000         0.00000         0.00000         0.00000         0.00000         0.00000         0.00000         0.00000         0.00000         0.00000         0.00000         0.00000         0.00000         0.00000         0.00000         0.00000         0.00000         0.00000         0.00000         0.00000         0.00000         0.00000         0.00000         0.00000         0.00000         0.00000         0.00000         0.00000         0.00000         0.00000         0.00000         0.00000         0.00000         0.00000         0.00000         0.00000         0.00000         0.00000         0.00000         0.00000         0.00000         0.00000         0.00000         0.00000         0.00000         0.00000         0.00000         0.00000         0.00000         0.00000         0.00000         0.00000         0.00000         0.00000         0.00000         0.00000         0.00000         0.00000         0.00000         0.00000         0.00000         0.00000         0.00000         0.00000         0.00000         0.00000         0.00000         0.00000         0.00000         0.00000         0.00000         0.00000         0.00000         0.00000         0.00000         0.00000         0.00000         0.00000         0.00000         0.00000         0.00000         0.00000         0.00000         0.00000         0.00000         0.00000         0.00000         0.00000         0.00000         0.00000         0.00000         0.00000         0.00000         0.00000         0.00000         0.00000         0.00000         0.00000         0.00000         0.00000         0.00000         0.00000         0.00000         0.00000         0.00000         0.00000         0.00000         0.00000         0.00000         0.00000         0.00000         0.00000         0.00000         0.00000         0.00000         0.00000         0.00000         0.00000         0.00000         0.00000         0.00000         0.00000         0.00000         0.00000         0.00000         0.00000         0.00000         0.00000         0.00000         0.00000         0.00000         0.00000         0.00000         0.00000         0.00000         0.00000         0.00000         0.00000         0.00000         0.00000         0.00000         0.00000         0.00000         0.00000         0.00000         0.00000         0.00000         0.00000         0.00000         0.00000         0.00000         0.00000         0.00000         0.00000         0.00000         0.00000         0.00000         0.00000         0.00000         0.00000         1.00000         1.00000         1.00000         1.00000         0.00000         0.00000         0.00000         0.00000         0.00000         0.00000         0.00000         0.00000         0.00000         0.00000         0.00000         0.00000         0.00000         0.00000         0.00000         0.00000         0.00000         0.00000         0.00000         0.00000         0.00000         0.00000         0.00000         0.00000         0.00000         0.00000         0.00000         0.00000         0.00000         0.00000         0.00000         0.00000         0.00000         0.00000         0.00000         0.00000         0.00000         0.00000         0.00000         0.00000         0.00000         0.00000         0.00000         0.00000         0.00000         0.00000         0.00000         0.00000         0.00000         0.00000         0.00000         0.00000         0.00000         0.00000         0.00000         0.00000         0.00000         0.00000         0.00000         0.00000         0.00000         0.00000         0.00000         0.00000         0.00000         0.00000         0.00000         0.00000         0.00000         0.00000         0.00000         0.00000         0.00000         0.00000         0.00000         0.00000         0.00000         0.00000         0.00000         0.00000         0.00000         0.00000         0.00000         0.00000         0.00000         0.00000         0.00000         0.00000         0.00000         0.00000         0.00000         0.00000         0.00000         0.00000         0.00000         0.00000         0.00000         0.00000         0.00000         0.00000         0.00000         0.00000         0.00000         0.00000         0.00000         0.00000         0.00000         0.00000         0.00000         0.00000         0.00000         0.00000         0.00000         0.00000         0.00000         0.00000         0.00000         0.00000         0.00000         0.00000         0.00000         0.00000         0.00000         0.00000         0.00000         0.00000         0.00000         0.00000         0.00000         0.00000         0.00000         0.00000         0.00000         0.00000         0.00000         0.00000         0.00000         0.00000         0.00000         0.00000         0.00000         0.00000         0.00000         0.00000         0.00000         0.00000         0.00000         0.00000         0.00000         0.00000         0.00000         0.00000         0.00000         0.00000         0.00000         0.00000         0.00000         0.00000         0.00000         0.00000         0.00000         0.00000         0.00000         0.00000         0.00000         0.00000         0.00000         0.00000         0.00000         0.00000         0.00000         0.00000         0.00000         0.00000         0.00000         0.00000         0.00000         0.00000         0.00000         0.00000         0.00000         0.00000         0.00000         0.00000         0.00000         0.00000         0.00000         0.00000         0.00000         0.00000         0.00000         0.00000         0.00000         0.00000         0.00000         0.00000         0.00000         0.00000         0.00000         0.00000         0.00000         0.00000         0.00000         0.00000         0.00000         0.00000         0.00000         0.00000         0.00000         0.00000         0.00000         0.00000         0.00000         0.00000         0.00000         0.00000         0.00000         0.00000         0.00000         0.00000         0.00000         0.00000         0.00000         0.00000         0.00000         0.00000         0.00000         0.00000         0.00000    
1
  CONCENTRATION IN LAYER  22 AT END OF TIME STEP  73 IN STRESS PERIOD    1
  ---------------------------------------------------------------------------

 ........................................................................................................................................................................................................................................................................................................................................................................................................................................................................................................................................................................................................................................................................................................................................................................................................................................................................................................................................................................................................................................
   1      0.00000         0.00000         0.00000         0.00000         0.00000         0.00000         0.00000         0.00000         0.00000         0.00000         0.00000         0.00000         0.00000         0.00000         0.00000         0.00000         0.00000         0.00000         0.00000         0.00000         0.00000         0.00000         0.00000         0.00000         0.00000         0.00000         0.00000         0.00000         0.00000         0.00000         0.00000         0.00000         0.00000         0.00000         0.00000         0.00000         0.00000         0.00000         0.00000         0.00000         0.00000         0.00000         0.00000         0.00000         0.00000         0.00000         0.00000         0.00000         0.00000         0.00000         0.00000         0.00000         0.00000         0.00000         0.00000         0.00000         0.00000         0.00000         0.00000         0.00000         0.00000         0.00000         0.00000         0.00000         0.00000         0.00000         0.00000         0.00000         0.00000         0.00000         0.00000         0.00000         0.00000         0.00000         0.00000         0.00000         0.00000         0.00000         0.00000         0.00000         0.00000         0.00000         0.00000         0.00000         0.00000         0.00000         0.00000         0.00000         0.00000         0.00000         0.00000         0.00000         0.00000         0.00000         0.00000         0.00000         0.00000         0.00000         0.00000         0.00000         0.00000         0.00000         0.00000         0.00000         0.00000         0.00000         0.00000         0.00000         0.00000         0.00000         0.00000         0.00000         0.00000         0.00000         0.00000         0.00000         0.00000         0.00000         0.00000         0.00000         0.00000         0.00000         0.00000         0.00000         0.00000         0.00000         0.00000         0.00000         0.00000         0.00000         0.00000         0.00000         0.00000         0.00000         0.00000         0.00000         0.00000         0.00000         0.00000         0.00000         0.00000         0.00000         0.00000         0.00000         0.00000         0.00000         0.00000         0.00000         0.00000         0.00000         0.00000         0.00000         0.00000         0.00000         0.00000         0.00000         0.00000         0.00000         0.00000         0.00000         0.00000         0.00000         0.00000         0.00000         0.00000         0.00000         0.00000         1.00000         1.00000         1.00000         1.00000         0.00000         0.00000         0.00000         0.00000         0.00000         0.00000         0.00000         0.00000         0.00000         0.00000         0.00000         0.00000         0.00000         0.00000         0.00000         0.00000         0.00000         0.00000         0.00000         0.00000         0.00000         0.00000         0.00000         0.00000         0.00000         0.00000         0.00000         0.00000         0.00000         0.00000         0.00000         0.00000         0.00000         0.00000         0.00000         0.00000         0.00000         0.00000         0.00000         0.00000         0.00000         0.00000         0.00000         0.00000         0.00000         0.00000         0.00000         0.00000         0.00000         0.00000         0.00000         0.00000         0.00000         0.00000         0.00000         0.00000         0.00000         0.00000         0.00000         0.00000         0.00000         0.00000         0.00000         0.00000         0.00000         0.00000         0.00000         0.00000         0.00000         0.00000         0.00000         0.00000         0.00000         0.00000         0.00000         0.00000         0.00000         0.00000         0.00000         0.00000         0.00000         0.00000         0.00000         0.00000         0.00000         0.00000         0.00000         0.00000         0.00000         0.00000         0.00000         0.00000         0.00000         0.00000         0.00000         0.00000         0.00000         0.00000         0.00000         0.00000         0.00000         0.00000         0.00000         0.00000         0.00000         0.00000         0.00000         0.00000         0.00000         0.00000         0.00000         0.00000         0.00000         0.00000         0.00000         0.00000         0.00000         0.00000         0.00000         0.00000         0.00000         0.00000         0.00000         0.00000         0.00000         0.00000         0.00000         0.00000         0.00000         0.00000         0.00000         0.00000         0.00000         0.00000         0.00000         0.00000         0.00000         0.00000         0.00000         0.00000         0.00000         0.00000         0.00000         0.00000         0.00000         0.00000         0.00000         0.00000         0.00000         0.00000         0.00000         0.00000         0.00000         0.00000         0.00000         0.00000         0.00000         0.00000         0.00000         0.00000         0.00000         0.00000         0.00000         0.00000         0.00000         0.00000         0.00000         0.00000         0.00000         0.00000         0.00000         0.00000         0.00000         0.00000         0.00000         0.00000         0.00000         0.00000         0.00000         0.00000         0.00000         0.00000         0.00000         0.00000         0.00000         0.00000         0.00000         0.00000         0.00000         0.00000         0.00000         0.00000         0.00000         0.00000         0.00000         0.00000         0.00000         0.00000         0.00000         0.00000         0.00000         0.00000         0.00000         0.00000         0.00000         0.00000         0.00000         0.00000         0.00000         0.00000         0.00000         0.00000         0.00000         0.00000         0.00000         0.00000         0.00000         0.00000         0.00000         0.00000         0.00000         0.00000         0.00000         0.00000         0.00000         0.00000         0.00000         0.00000         0.00000    
1
  CONCENTRATION IN LAYER  23 AT END OF TIME STEP  73 IN STRESS PERIOD    1
  ---------------------------------------------------------------------------

 ........................................................................................................................................................................................................................................................................................................................................................................................................................................................................................................................................................................................................................................................................................................................................................................................................................................................................................................................................................................................................................................
   1      0.00000         0.00000         0.00000         0.00000         0.00000         0.00000         0.00000         0.00000         0.00000         0.00000         0.00000         0.00000         0.00000         0.00000         0.00000         0.00000         0.00000         0.00000         0.00000         0.00000         0.00000         0.00000         0.00000         0.00000         0.00000         0.00000         0.00000         0.00000         0.00000         0.00000         0.00000         0.00000         0.00000         0.00000         0.00000         0.00000         0.00000         0.00000         0.00000         0.00000         0.00000         0.00000         0.00000         0.00000         0.00000         0.00000         0.00000         0.00000         0.00000         0.00000         0.00000         0.00000         0.00000         0.00000         0.00000         0.00000         0.00000         0.00000         0.00000         0.00000         0.00000         0.00000         0.00000         0.00000         0.00000         0.00000         0.00000         0.00000         0.00000         0.00000         0.00000         0.00000         0.00000         0.00000         0.00000         0.00000         0.00000         0.00000         0.00000         0.00000         0.00000         0.00000         0.00000         0.00000         0.00000         0.00000         0.00000         0.00000         0.00000         0.00000         0.00000         0.00000         0.00000         0.00000         0.00000         0.00000         0.00000         0.00000         0.00000         0.00000         0.00000         0.00000         0.00000         0.00000         0.00000         0.00000         0.00000         0.00000         0.00000         0.00000         0.00000         0.00000         0.00000         0.00000         0.00000         0.00000         0.00000         0.00000         0.00000         0.00000         0.00000         0.00000         0.00000         0.00000         0.00000         0.00000         0.00000         0.00000         0.00000         0.00000         0.00000         0.00000         0.00000         0.00000         0.00000         0.00000         0.00000         0.00000         0.00000         0.00000         0.00000         0.00000         0.00000         0.00000         0.00000         0.00000         0.00000         0.00000         0.00000         0.00000         0.00000         0.00000         0.00000         0.00000         0.00000         0.00000         0.00000         0.00000         0.00000         0.00000         0.00000         0.00000         0.00000         0.00000         0.00000         0.00000        0.265306         1.00000         1.00000         1.00000         1.00000        0.140625         0.00000         0.00000         0.00000         0.00000         0.00000         0.00000         0.00000         0.00000         0.00000         0.00000         0.00000         0.00000         0.00000         0.00000         0.00000         0.00000         0.00000         0.00000         0.00000         0.00000         0.00000         0.00000         0.00000         0.00000         0.00000         0.00000         0.00000         0.00000         0.00000         0.00000         0.00000         0.00000         0.00000         0.00000         0.00000         0.00000         0.00000         0.00000         0.00000         0.00000         0.00000         0.00000         0.00000         0.00000         0.00000         0.00000         0.00000         0.00000         0.00000         0.00000         0.00000         0.00000         0.00000         0.00000         0.00000         0.00000         0.00000         0.00000         0.00000         0.00000         0.00000         0.00000         0.00000         0.00000         0.00000         0.00000         0.00000         0.00000         0.00000         0.00000         0.00000         0.00000         0.00000         0.00000         0.00000         0.00000         0.00000         0.00000         0.00000         0.00000         0.00000         0.00000         0.00000         0.00000         0.00000         0.00000         0.00000         0.00000         0.00000         0.00000         0.00000         0.00000         0.00000         0.00000         0.00000         0.00000         0.00000         0.00000         0.00000         0.00000         0.00000         0.00000         0.00000         0.00000         0.00000         0.00000         0.00000         0.00000         0.00000         0.00000         0.00000         0.00000         0.00000         0.00000         0.00000         0.00000         0.00000         0.00000         0.00000         0.00000         0.00000         0.00000         0.00000         0.00000         0.00000         0.00000         0.00000         0.00000         0.00000         0.00000         0.00000         0.00000         0.00000         0.00000         0.00000         0.00000         0.00000         0.00000         0.00000         0.00000         0.00000         0.00000         0.00000         0.00000         0.00000         0.00000         0.00000         0.00000         0.00000         0.00000         0.00000         0.00000         0.00000         0.00000         0.00000         0.00000         0.00000         0.00000         0.00000         0.00000         0.00000         0.00000         0.00000         0.00000         0.00000         0.00000         0.00000         0.00000         0.00000         0.00000         0.00000         0.00000         0.00000         0.00000         0.00000         0.00000         0.00000         0.00000         0.00000         0.00000         0.00000         0.00000         0.00000         0.00000         0.00000         0.00000         0.00000         0.00000         0.00000         0.00000         0.00000         0.00000         0.00000         0.00000         0.00000         0.00000         0.00000         0.00000         0.00000         0.00000         0.00000         0.00000         0.00000         0.00000         0.00000         0.00000         0.00000         0.00000         0.00000         0.00000         0.00000         0.00000         0.00000         0.00000         0.00000         0.00000         0.00000         0.00000         0.00000         0.00000         0.00000         0.00000         0.00000         0.00000         0.00000         0.00000         0.00000         0.00000    
1
  CONCENTRATION IN LAYER  24 AT END OF TIME STEP  73 IN STRESS PERIOD    1
  ---------------------------------------------------------------------------

 ........................................................................................................................................................................................................................................................................................................................................................................................................................................................................................................................................................................................................................................................................................................................................................................................................................................................................................................................................................................................................................................
   1      0.00000         0.00000         0.00000         0.00000         0.00000         0.00000         0.00000         0.00000         0.00000         0.00000         0.00000         0.00000         0.00000         0.00000         0.00000         0.00000         0.00000         0.00000         0.00000         0.00000         0.00000         0.00000         0.00000         0.00000         0.00000         0.00000         0.00000         0.00000         0.00000         0.00000         0.00000         0.00000         0.00000         0.00000         0.00000         0.00000         0.00000         0.00000         0.00000         0.00000         0.00000         0.00000         0.00000         0.00000         0.00000         0.00000         0.00000         0.00000         0.00000         0.00000         0.00000         0.00000         0.00000         0.00000         0.00000         0.00000         0.00000         0.00000         0.00000         0.00000         0.00000         0.00000         0.00000         0.00000         0.00000         0.00000         0.00000         0.00000         0.00000         0.00000         0.00000         0.00000         0.00000         0.00000         0.00000         0.00000         0.00000         0.00000         0.00000         0.00000         0.00000         0.00000         0.00000         0.00000         0.00000         0.00000         0.00000         0.00000         0.00000         0.00000         0.00000         0.00000         0.00000         0.00000         0.00000         0.00000         0.00000         0.00000         0.00000         0.00000         0.00000         0.00000         0.00000         0.00000         0.00000         0.00000         0.00000         0.00000         0.00000         0.00000         0.00000         0.00000         0.00000         0.00000         0.00000         0.00000         0.00000         0.00000         0.00000         0.00000         0.00000         0.00000         0.00000         0.00000         0.00000         0.00000         0.00000         0.00000         0.00000         0.00000         0.00000         0.00000         0.00000         0.00000         0.00000         0.00000         0.00000         0.00000         0.00000         0.00000         0.00000         0.00000         0.00000         0.00000         0.00000         0.00000         0.00000         0.00000         0.00000         0.00000         0.00000         0.00000         0.00000         0.00000         0.00000         0.00000         0.00000         0.00000         0.00000         0.00000         0.00000         0.00000         0.00000         0.00000         0.00000         0.00000         1.00000         1.00000         1.00000         1.00000         1.00000         1.00000         0.00000         0.00000         0.00000         0.00000         0.00000         0.00000         0.00000         0.00000         0.00000         0.00000         0.00000         0.00000         0.00000         0.00000         0.00000         0.00000         0.00000         0.00000         0.00000         0.00000         0.00000         0.00000         0.00000         0.00000         0.00000         0.00000         0.00000         0.00000         0.00000         0.00000         0.00000         0.00000         0.00000         0.00000         0.00000         0.00000         0.00000         0.00000         0.00000         0.00000         0.00000         0.00000         0.00000         0.00000         0.00000         0.00000         0.00000         0.00000         0.00000         0.00000         0.00000         0.00000         0.00000         0.00000         0.00000         0.00000         0.00000         0.00000         0.00000         0.00000         0.00000         0.00000         0.00000         0.00000         0.00000         0.00000         0.00000         0.00000         0.00000         0.00000         0.00000         0.00000         0.00000         0.00000         0.00000         0.00000         0.00000         0.00000         0.00000         0.00000         0.00000         0.00000         0.00000         0.00000         0.00000         0.00000         0.00000         0.00000         0.00000         0.00000         0.00000         0.00000         0.00000         0.00000         0.00000         0.00000         0.00000         0.00000         0.00000         0.00000         0.00000         0.00000         0.00000         0.00000         0.00000         0.00000         0.00000         0.00000         0.00000         0.00000         0.00000         0.00000         0.00000         0.00000         0.00000         0.00000         0.00000         0.00000         0.00000         0.00000         0.00000         0.00000         0.00000         0.00000         0.00000         0.00000         0.00000         0.00000         0.00000         0.00000         0.00000         0.00000         0.00000         0.00000         0.00000         0.00000         0.00000         0.00000         0.00000         0.00000         0.00000         0.00000         0.00000         0.00000         0.00000         0.00000         0.00000         0.00000         0.00000         0.00000         0.00000         0.00000         0.00000         0.00000         0.00000         0.00000         0.00000         0.00000         0.00000         0.00000         0.00000         0.00000         0.00000         0.00000         0.00000         0.00000         0.00000         0.00000         0.00000         0.00000         0.00000         0.00000         0.00000         0.00000         0.00000         0.00000         0.00000         0.00000         0.00000         0.00000         0.00000         0.00000         0.00000         0.00000         0.00000         0.00000         0.00000         0.00000         0.00000         0.00000         0.00000         0.00000         0.00000         0.00000         0.00000         0.00000         0.00000         0.00000         0.00000         0.00000         0.00000         0.00000         0.00000         0.00000         0.00000         0.00000         0.00000         0.00000         0.00000         0.00000         0.00000         0.00000         0.00000         0.00000         0.00000         0.00000         0.00000         0.00000         0.00000         0.00000         0.00000         0.00000         0.00000         0.00000         0.00000         0.00000         0.00000         0.00000    
1
  CONCENTRATION IN LAYER  25 AT END OF TIME STEP  73 IN STRESS PERIOD    1
  ---------------------------------------------------------------------------

 ........................................................................................................................................................................................................................................................................................................................................................................................................................................................................................................................................................................................................................................................................................................................................................................................................................................................................................................................................................................................................................................
   1      0.00000         0.00000         0.00000         0.00000         0.00000         0.00000         0.00000         0.00000         0.00000         0.00000         0.00000         0.00000         0.00000         0.00000         0.00000         0.00000         0.00000         0.00000         0.00000         0.00000         0.00000         0.00000         0.00000         0.00000         0.00000         0.00000         0.00000         0.00000         0.00000         0.00000         0.00000         0.00000         0.00000         0.00000         0.00000         0.00000         0.00000         0.00000         0.00000         0.00000         0.00000         0.00000         0.00000         0.00000         0.00000         0.00000         0.00000         0.00000         0.00000         0.00000         0.00000         0.00000         0.00000         0.00000         0.00000         0.00000         0.00000         0.00000         0.00000         0.00000         0.00000         0.00000         0.00000         0.00000         0.00000         0.00000         0.00000         0.00000         0.00000         0.00000         0.00000         0.00000         0.00000         0.00000         0.00000         0.00000         0.00000         0.00000         0.00000         0.00000         0.00000         0.00000         0.00000         0.00000         0.00000         0.00000         0.00000         0.00000         0.00000         0.00000         0.00000         0.00000         0.00000         0.00000         0.00000         0.00000         0.00000         0.00000         0.00000         0.00000         0.00000         0.00000         0.00000         0.00000         0.00000         0.00000         0.00000         0.00000         0.00000         0.00000         0.00000         0.00000         0.00000         0.00000         0.00000         0.00000         0.00000         0.00000         0.00000         0.00000         0.00000         0.00000         0.00000         0.00000         0.00000         0.00000         0.00000         0.00000         0.00000         0.00000         0.00000         0.00000         0.00000         0.00000         0.00000         0.00000         0.00000         0.00000         0.00000         0.00000         0.00000         0.00000         0.00000         0.00000         0.00000         0.00000         0.00000         0.00000         0.00000         0.00000         0.00000         0.00000         0.00000         0.00000         0.00000         0.00000         0.00000         0.00000         0.00000         0.00000         0.00000         0.00000         0.00000         0.00000         0.00000         1.00000         1.00000         1.00000         1.00000         1.00000         1.00000         1.00000         1.00000         0.00000        0.492958         0.00000        0.826087         0.00000        0.999998         0.00000         0.00000         0.00000         0.00000         0.00000         0.00000         0.00000         0.00000         0.00000         0.00000         0.00000         0.00000         0.00000         0.00000         0.00000         0.00000         0.00000         0.00000         0.00000         0.00000         0.00000         0.00000         0.00000         0.00000         0.00000         0.00000         0.00000         0.00000         0.00000         0.00000         0.00000         0.00000         0.00000         0.00000         0.00000         0.00000         0.00000         0.00000         0.00000         0.00000         0.00000         0.00000         0.00000         0.00000         0.00000         0.00000         0.00000         0.00000         0.00000         0.00000         0.00000         0.00000         0.00000         0.00000         0.00000         0.00000         0.00000         0.00000         0.00000         0.00000         0.00000         0.00000         0.00000         0.00000         0.00000         0.00000         0.00000         0.00000         0.00000         0.00000         0.00000         0.00000         0.00000         0.00000         0.00000         0.00000         0.00000         0.00000         0.00000         0.00000         0.00000         0.00000         0.00000         0.00000         0.00000         0.00000         0.00000         0.00000         0.00000         0.00000         0.00000         0.00000         0.00000         0.00000         0.00000         0.00000         0.00000         0.00000         0.00000         0.00000         0.00000         0.00000         0.00000         0.00000         0.00000         0.00000         0.00000         0.00000         0.00000         0.00000         0.00000         0.00000         0.00000         0.00000         0.00000         0.00000         0.00000         0.00000         0.00000         0.00000         0.00000         0.00000         0.00000         0.00000         0.00000         0.00000         0.00000         0.00000         0.00000         0.00000         0.00000         0.00000         0.00000         0.00000         0.00000         0.00000         0.00000         0.00000         0.00000         0.00000         0.00000         0.00000         0.00000         0.00000         0.00000         0.00000         0.00000         0.00000         0.00000         0.00000         0.00000         0.00000         0.00000         0.00000         0.00000         0.00000         0.00000         0.00000         0.00000         0.00000         0.00000         0.00000         0.00000         0.00000         0.00000         0.00000         0.00000         0.00000         0.00000         0.00000         0.00000         0.00000         0.00000         0.00000         0.00000         0.00000         0.00000         0.00000         0.00000         0.00000         0.00000         0.00000         0.00000         0.00000         0.00000         0.00000         0.00000         0.00000         0.00000         0.00000         0.00000         0.00000         0.00000         0.00000         0.00000         0.00000         0.00000         0.00000         0.00000         0.00000         0.00000         0.00000         0.00000         0.00000         0.00000         0.00000         0.00000         0.00000         0.00000         0.00000         0.00000         0.00000         0.00000         0.00000         0.00000         0.00000         0.00000         0.00000         0.00000         0.00000         0.00000    
1
  CONCENTRATION IN LAYER  26 AT END OF TIME STEP  73 IN STRESS PERIOD    1
  ---------------------------------------------------------------------------

 ........................................................................................................................................................................................................................................................................................................................................................................................................................................................................................................................................................................................................................................................................................................................................................................................................................................................................................................................................................................................................................................
   1      0.00000         0.00000         0.00000         0.00000         0.00000         0.00000         0.00000         0.00000         0.00000         0.00000         0.00000         0.00000         0.00000         0.00000         0.00000         0.00000         0.00000         0.00000         0.00000         0.00000         0.00000         0.00000         0.00000         0.00000         0.00000         0.00000         0.00000         0.00000         0.00000         0.00000         0.00000         0.00000         0.00000         0.00000         0.00000         0.00000         0.00000         0.00000         0.00000         0.00000         0.00000         0.00000         0.00000         0.00000         0.00000         0.00000         0.00000         0.00000         0.00000         0.00000         0.00000         0.00000         0.00000         0.00000         0.00000         0.00000         0.00000         0.00000         0.00000         0.00000         0.00000         0.00000         0.00000         0.00000         0.00000         0.00000         0.00000         0.00000         0.00000         0.00000         0.00000         0.00000         0.00000         0.00000         0.00000         0.00000         0.00000         0.00000         0.00000         0.00000         0.00000         0.00000         0.00000         0.00000         0.00000         0.00000         0.00000         0.00000         0.00000         0.00000         0.00000         0.00000         0.00000         0.00000         0.00000         0.00000         0.00000         0.00000         0.00000         0.00000         0.00000         0.00000         0.00000         0.00000         0.00000         0.00000         0.00000         0.00000         0.00000         0.00000         0.00000         0.00000         0.00000         0.00000         0.00000         0.00000         0.00000         0.00000         0.00000         0.00000         0.00000         0.00000         0.00000         0.00000         0.00000         0.00000         0.00000         0.00000         0.00000         0.00000         0.00000         0.00000         0.00000         0.00000         0.00000         0.00000         0.00000         0.00000         0.00000         0.00000         0.00000         0.00000         0.00000         0.00000         0.00000         0.00000         0.00000         0.00000         0.00000         0.00000         0.00000         0.00000         0.00000         0.00000         0.00000         0.00000         0.00000         0.00000         0.00000         0.00000         1.00000         1.00000         1.00000         1.00000         1.00000         1.00000         1.00000         1.00000         1.00000         1.00000         1.00000         1.00000         1.00000         1.00000         1.00000         1.00000         1.00000         1.00000        0.999998        0.999998         0.00000         0.00000         0.00000         0.00000         0.00000         0.00000         0.00000         0.00000        0.704640        0.544229         0.00000        0.421522         0.00000         0.00000        0.432306         0.00000        0.237841        9.877875E-02     0.00000         0.00000         0.00000         0.00000         0.00000         0.00000         0.00000         0.00000         0.00000         0.00000         0.00000         0.00000         0.00000         0.00000         0.00000         0.00000         0.00000         0.00000         0.00000         0.00000         0.00000         0.00000         0.00000         0.00000         0.00000         0.00000         0.00000         0.00000         0.00000         0.00000         0.00000         0.00000         0.00000         0.00000         0.00000         0.00000         0.00000         0.00000         0.00000         0.00000         0.00000         0.00000         0.00000         0.00000         0.00000         0.00000         0.00000         0.00000         0.00000         0.00000         0.00000         0.00000         0.00000         0.00000         0.00000         0.00000         0.00000         0.00000         0.00000         0.00000         0.00000         0.00000         0.00000         0.00000         0.00000         0.00000         0.00000         0.00000         0.00000         0.00000         0.00000         0.00000         0.00000         0.00000         0.00000         0.00000         0.00000         0.00000         0.00000         0.00000         0.00000         0.00000         0.00000         0.00000         0.00000         0.00000         0.00000         0.00000         0.00000         0.00000         0.00000         0.00000         0.00000         0.00000         0.00000         0.00000         0.00000         0.00000         0.00000         0.00000         0.00000         0.00000         0.00000         0.00000         0.00000         0.00000         0.00000         0.00000         0.00000         0.00000         0.00000         0.00000         0.00000         0.00000         0.00000         0.00000         0.00000         0.00000         0.00000         0.00000         0.00000         0.00000         0.00000         0.00000         0.00000         0.00000         0.00000         0.00000         0.00000         0.00000         0.00000         0.00000         0.00000         0.00000         0.00000         0.00000         0.00000         0.00000         0.00000         0.00000         0.00000         0.00000         0.00000         0.00000         0.00000         0.00000         0.00000         0.00000         0.00000         0.00000         0.00000         0.00000         0.00000         0.00000         0.00000         0.00000         0.00000         0.00000         0.00000         0.00000         0.00000         0.00000         0.00000         0.00000         0.00000         0.00000         0.00000         0.00000         0.00000         0.00000         0.00000         0.00000         0.00000         0.00000         0.00000         0.00000         0.00000         0.00000         0.00000         0.00000         0.00000         0.00000         0.00000         0.00000         0.00000         0.00000         0.00000         0.00000         0.00000         0.00000         0.00000         0.00000         0.00000         0.00000         0.00000         0.00000         0.00000         0.00000         0.00000         0.00000         0.00000         0.00000    
1
  CONCENTRATION IN LAYER  27 AT END OF TIME STEP  73 IN STRESS PERIOD    1
  ---------------------------------------------------------------------------

 ........................................................................................................................................................................................................................................................................................................................................................................................................................................................................................................................................................................................................................................................................................................................................................................................................................................................................................................................................................................................................................................
   1      0.00000         0.00000         0.00000         0.00000         0.00000         0.00000         0.00000         0.00000         0.00000         0.00000         0.00000         0.00000         0.00000         0.00000         0.00000         0.00000         0.00000         0.00000         0.00000         0.00000         0.00000         0.00000         0.00000         0.00000         0.00000         0.00000         0.00000         0.00000         0.00000         0.00000         0.00000         0.00000         0.00000         0.00000         0.00000         0.00000         0.00000         0.00000         0.00000         0.00000         0.00000         0.00000         0.00000         0.00000         0.00000         0.00000         0.00000         0.00000         0.00000         0.00000         0.00000         0.00000         0.00000         0.00000         0.00000         0.00000         0.00000         0.00000         0.00000         0.00000         0.00000         0.00000         0.00000         0.00000         0.00000         0.00000         0.00000         0.00000         0.00000         0.00000         0.00000         0.00000         0.00000         0.00000         0.00000         0.00000         0.00000         0.00000         0.00000         0.00000         0.00000         0.00000         0.00000         0.00000         0.00000         0.00000         0.00000         0.00000         0.00000         0.00000         0.00000         0.00000         0.00000         0.00000         0.00000         0.00000         0.00000         0.00000         0.00000         0.00000         0.00000         0.00000         0.00000         0.00000         0.00000         0.00000         0.00000         0.00000         0.00000         0.00000         0.00000         0.00000         0.00000         0.00000         0.00000         0.00000         0.00000         0.00000         0.00000         0.00000         0.00000         0.00000         0.00000         0.00000         0.00000         0.00000         0.00000         0.00000         0.00000         0.00000         0.00000         0.00000         0.00000         0.00000         0.00000         0.00000         0.00000         0.00000         0.00000         0.00000         0.00000         0.00000         0.00000         0.00000         0.00000         0.00000         0.00000         0.00000         0.00000         0.00000         0.00000         0.00000         0.00000        0.999982        0.999982        0.999993        0.999998        0.999999         1.00000         1.00000         1.00000         1.00000         1.00000         1.00000         1.00000         1.00000         1.00000         1.00000         1.00000         1.00000         1.00000         1.00000         1.00000         1.00000         1.00000         1.00000         1.00000        0.999999        0.999996        0.999981        0.999925        0.999757        0.999317        0.998309        0.996255        0.992468        0.986085        0.976146        0.961738        0.941935        0.941935        0.843043         0.00000         0.00000        0.679338         0.00000        0.554963        0.493894         0.00000         0.00000        0.328309         0.00000        5.869355E-02     0.00000         0.00000         0.00000         0.00000         0.00000         0.00000         0.00000         0.00000         0.00000         0.00000         0.00000         0.00000         0.00000         0.00000         0.00000         0.00000         0.00000         0.00000         0.00000         0.00000         0.00000         0.00000         0.00000         0.00000         0.00000         0.00000         0.00000         0.00000         0.00000         0.00000         0.00000         0.00000         0.00000         0.00000         0.00000         0.00000         0.00000         0.00000         0.00000         0.00000         0.00000         0.00000         0.00000         0.00000         0.00000         0.00000         0.00000         0.00000         0.00000         0.00000         0.00000         0.00000         0.00000         0.00000         0.00000         0.00000         0.00000         0.00000         0.00000         0.00000         0.00000         0.00000         0.00000         0.00000         0.00000         0.00000         0.00000         0.00000         0.00000         0.00000         0.00000         0.00000         0.00000         0.00000         0.00000         0.00000         0.00000         0.00000         0.00000         0.00000         0.00000         0.00000         0.00000         0.00000         0.00000         0.00000         0.00000         0.00000         0.00000         0.00000         0.00000         0.00000         0.00000         0.00000         0.00000         0.00000         0.00000         0.00000         0.00000         0.00000         0.00000         0.00000         0.00000         0.00000         0.00000         0.00000         0.00000         0.00000         0.00000         0.00000         0.00000         0.00000         0.00000         0.00000         0.00000         0.00000         0.00000         0.00000         0.00000         0.00000         0.00000         0.00000         0.00000         0.00000         0.00000         0.00000         0.00000         0.00000         0.00000         0.00000         0.00000         0.00000         0.00000         0.00000         0.00000         0.00000         0.00000         0.00000         0.00000         0.00000         0.00000         0.00000         0.00000         0.00000         0.00000         0.00000         0.00000         0.00000         0.00000         0.00000         0.00000         0.00000         0.00000         0.00000         0.00000         0.00000         0.00000         0.00000         0.00000         0.00000         0.00000         0.00000         0.00000         0.00000         0.00000         0.00000         0.00000         0.00000         0.00000         0.00000         0.00000         0.00000         0.00000         0.00000         0.00000         0.00000         0.00000         0.00000         0.00000         0.00000         0.00000         0.00000         0.00000         0.00000         0.00000         0.00000         0.00000         0.00000         0.00000         0.00000         0.00000         0.00000         0.00000         0.00000         0.00000         0.00000         0.00000    
1
  CONCENTRATION IN LAYER  28 AT END OF TIME STEP  73 IN STRESS PERIOD    1
  ---------------------------------------------------------------------------

 ........................................................................................................................................................................................................................................................................................................................................................................................................................................................................................................................................................................................................................................................................................................................................................................................................................................................................................................................................................................................................................................
   1      0.00000         0.00000         0.00000         0.00000         0.00000         0.00000         0.00000         0.00000         0.00000         0.00000         0.00000         0.00000         0.00000         0.00000         0.00000         0.00000         0.00000         0.00000         0.00000         0.00000         0.00000         0.00000         0.00000         0.00000         0.00000         0.00000         0.00000         0.00000         0.00000         0.00000         0.00000         0.00000         0.00000         0.00000         0.00000         0.00000         0.00000         0.00000         0.00000         0.00000         0.00000         0.00000         0.00000         0.00000         0.00000         0.00000         0.00000         0.00000         0.00000         0.00000         0.00000         0.00000         0.00000         0.00000         0.00000         0.00000         0.00000         0.00000         0.00000         0.00000         0.00000         0.00000         0.00000         0.00000         0.00000         0.00000         0.00000         0.00000         0.00000         0.00000         0.00000         0.00000         0.00000         0.00000         0.00000         0.00000         0.00000         0.00000         0.00000         0.00000         0.00000         0.00000         0.00000         0.00000         0.00000         0.00000         0.00000         0.00000         0.00000         0.00000         0.00000         0.00000         0.00000         0.00000         0.00000         0.00000         0.00000         0.00000         0.00000         0.00000         0.00000         0.00000         0.00000         0.00000         0.00000         0.00000         0.00000         0.00000         0.00000         0.00000         0.00000         0.00000         0.00000         0.00000         0.00000         0.00000         0.00000         0.00000         0.00000         0.00000         0.00000         0.00000         0.00000         0.00000         0.00000         0.00000         0.00000         0.00000         0.00000         0.00000         0.00000         0.00000         0.00000         0.00000         0.00000         0.00000         0.00000         0.00000         0.00000         0.00000         0.00000        0.962098         0.00000        0.488910         0.00000         0.00000        0.996929        0.996929        0.998070        0.998841        0.999341        0.999647        0.999822        0.999916        0.999962        0.999984        0.999993        0.999998        0.999999         1.00000         1.00000         1.00000         1.00000         1.00000         1.00000         1.00000         1.00000         1.00000         1.00000         1.00000         1.00000         1.00000         1.00000         1.00000         1.00000         1.00000        0.999999        0.999997        0.999986        0.999947        0.999822        0.999479        0.998656        0.996905        0.993551        0.987698        0.978290        0.964238        0.944584        0.918608        0.885165        0.843043        0.793862        0.738769        0.679338        0.617418        0.554963        0.493894        0.436028        0.383027        0.383027         0.00000        0.186438         0.00000        5.395496E-02     0.00000         0.00000        2.941991E-02     0.00000         0.00000         0.00000         0.00000         0.00000         0.00000         0.00000         0.00000         0.00000         0.00000        1.059229E-03     0.00000         0.00000         0.00000         0.00000         0.00000         0.00000         0.00000         0.00000         0.00000         0.00000         0.00000         0.00000         0.00000         0.00000         0.00000         0.00000         0.00000         0.00000         0.00000         0.00000         0.00000         0.00000         0.00000         0.00000         0.00000         0.00000         0.00000         0.00000         0.00000         0.00000         0.00000         0.00000         0.00000         0.00000         0.00000         0.00000         0.00000         0.00000         0.00000         0.00000         0.00000         0.00000         0.00000         0.00000         0.00000         0.00000         0.00000         0.00000         0.00000         0.00000         0.00000         0.00000         0.00000         0.00000         0.00000         0.00000         0.00000         0.00000         0.00000         0.00000         0.00000         0.00000         0.00000         0.00000         0.00000         0.00000         0.00000         0.00000         0.00000         0.00000         0.00000         0.00000         0.00000         0.00000         0.00000         0.00000         0.00000         0.00000         0.00000         0.00000         0.00000         0.00000         0.00000         0.00000         0.00000         0.00000         0.00000         0.00000         0.00000         0.00000         0.00000         0.00000         0.00000         0.00000         0.00000         0.00000         0.00000         0.00000         0.00000         0.00000         0.00000         0.00000         0.00000         0.00000         0.00000         0.00000         0.00000         0.00000         0.00000         0.00000         0.00000         0.00000         0.00000         0.00000         0.00000         0.00000         0.00000         0.00000         0.00000         0.00000         0.00000         0.00000         0.00000         0.00000         0.00000         0.00000         0.00000         0.00000         0.00000         0.00000         0.00000         0.00000         0.00000         0.00000         0.00000         0.00000         0.00000         0.00000         0.00000         0.00000         0.00000         0.00000         0.00000         0.00000         0.00000         0.00000         0.00000         0.00000         0.00000         0.00000         0.00000         0.00000         0.00000         0.00000         0.00000         0.00000         0.00000         0.00000         0.00000         0.00000         0.00000         0.00000         0.00000         0.00000         0.00000         0.00000         0.00000         0.00000         0.00000         0.00000         0.00000         0.00000         0.00000         0.00000         0.00000         0.00000         0.00000         0.00000         0.00000         0.00000         0.00000    
1
  CONCENTRATION IN LAYER  29 AT END OF TIME STEP  73 IN STRESS PERIOD    1
  ---------------------------------------------------------------------------

 ........................................................................................................................................................................................................................................................................................................................................................................................................................................................................................................................................................................................................................................................................................................................................................................................................................................................................................................................................................................................................................................
   1      0.00000         0.00000         0.00000         0.00000         0.00000         0.00000         0.00000         0.00000         0.00000         0.00000         0.00000         0.00000         0.00000         0.00000         0.00000         0.00000         0.00000         0.00000         0.00000         0.00000         0.00000         0.00000         0.00000         0.00000         0.00000         0.00000         0.00000         0.00000         0.00000         0.00000         0.00000         0.00000         0.00000         0.00000         0.00000         0.00000         0.00000         0.00000         0.00000         0.00000         0.00000         0.00000         0.00000         0.00000         0.00000         0.00000         0.00000         0.00000         0.00000         0.00000         0.00000         0.00000         0.00000         0.00000         0.00000         0.00000         0.00000         0.00000         0.00000         0.00000         0.00000         0.00000         0.00000         0.00000         0.00000         0.00000         0.00000         0.00000         0.00000         0.00000         0.00000         0.00000         0.00000         0.00000         0.00000         0.00000         0.00000         0.00000         0.00000         0.00000         0.00000         0.00000         0.00000         0.00000         0.00000         0.00000         0.00000         0.00000         0.00000         0.00000         0.00000         0.00000         0.00000         0.00000         0.00000         0.00000         0.00000         0.00000         0.00000         0.00000         0.00000         0.00000         0.00000         0.00000         0.00000         0.00000         0.00000         0.00000         0.00000         0.00000         0.00000         0.00000         0.00000         0.00000         0.00000         0.00000         0.00000         0.00000         0.00000         0.00000         0.00000         0.00000         0.00000         0.00000         0.00000         0.00000         0.00000         0.00000         0.00000         0.00000         0.00000         0.00000         0.00000         0.00000        0.491319        0.792859        0.258095        0.880004         0.00000         0.00000        0.962098        0.962098        0.970525        0.977819        0.983848        0.988629        0.992271        0.994779        0.996556        0.997813        0.998667        0.999223        0.999566        0.999769        0.999883        0.999944        0.999974        0.999989        0.999995        0.999998        0.999999         1.00000         1.00000         1.00000         1.00000         1.00000         1.00000         1.00000         1.00000         1.00000         1.00000         1.00000         1.00000         1.00000         1.00000        0.999999        0.999997        0.999987        0.999951        0.999841        0.999536        0.998792        0.997172        0.993996        0.988324        0.979007        0.964800        0.944539        0.917323        0.882691        0.840743        0.791776        0.736786        0.677209        0.614763        0.551280        0.488548        0.428185        0.371556        0.319689        0.272356        0.226457        0.186438        0.152174        0.123326        9.942179E-02    7.993592E-02    6.435605E-02    5.227287E-02    5.227287E-02     0.00000        9.910758E-03    6.286898E-03     0.00000         0.00000        2.359199E-03    3.500011E-03     0.00000        1.757357E-03     0.00000         0.00000         0.00000         0.00000         0.00000         0.00000         0.00000         0.00000         0.00000         0.00000         0.00000         0.00000         0.00000         0.00000         0.00000         0.00000         0.00000         0.00000         0.00000         0.00000         0.00000         0.00000         0.00000         0.00000         0.00000         0.00000         0.00000         0.00000         0.00000         0.00000         0.00000         0.00000         0.00000         0.00000         0.00000         0.00000         0.00000         0.00000         0.00000         0.00000         0.00000         0.00000         0.00000         0.00000         0.00000         0.00000         0.00000         0.00000         0.00000         0.00000         0.00000         0.00000         0.00000         0.00000         0.00000         0.00000         0.00000         0.00000         0.00000         0.00000         0.00000         0.00000         0.00000         0.00000         0.00000         0.00000         0.00000         0.00000         0.00000         0.00000         0.00000         0.00000         0.00000         0.00000         0.00000         0.00000         0.00000         0.00000         0.00000         0.00000         0.00000         0.00000         0.00000         0.00000         0.00000         0.00000         0.00000         0.00000         0.00000         0.00000         0.00000         0.00000         0.00000         0.00000         0.00000         0.00000         0.00000         0.00000         0.00000         0.00000         0.00000         0.00000         0.00000         0.00000         0.00000         0.00000         0.00000         0.00000         0.00000         0.00000         0.00000         0.00000         0.00000         0.00000         0.00000         0.00000         0.00000         0.00000         0.00000         0.00000         0.00000         0.00000         0.00000         0.00000         0.00000         0.00000         0.00000         0.00000         0.00000         0.00000         0.00000         0.00000         0.00000         0.00000         0.00000         0.00000         0.00000         0.00000         0.00000         0.00000         0.00000         0.00000         0.00000         0.00000         0.00000         0.00000         0.00000         0.00000         0.00000         0.00000         0.00000         0.00000         0.00000         0.00000         0.00000         0.00000         0.00000         0.00000         0.00000         0.00000         0.00000         0.00000         0.00000         0.00000         0.00000         0.00000         0.00000         0.00000         0.00000         0.00000         0.00000         0.00000         0.00000         0.00000         0.00000         0.00000         0.00000         0.00000         0.00000         0.00000         0.00000    
1
  CONCENTRATION IN LAYER  30 AT END OF TIME STEP  73 IN STRESS PERIOD    1
  ---------------------------------------------------------------------------

 ........................................................................................................................................................................................................................................................................................................................................................................................................................................................................................................................................................................................................................................................................................................................................................................................................................................................................................................................................................................................................................................
   1      0.00000         0.00000         0.00000         0.00000         0.00000         0.00000         0.00000         0.00000         0.00000         0.00000         0.00000         0.00000         0.00000         0.00000         0.00000         0.00000         0.00000         0.00000         0.00000         0.00000         0.00000         0.00000         0.00000         0.00000         0.00000         0.00000         0.00000         0.00000         0.00000         0.00000         0.00000         0.00000         0.00000         0.00000         0.00000         0.00000         0.00000         0.00000         0.00000         0.00000         0.00000         0.00000         0.00000         0.00000         0.00000         0.00000         0.00000         0.00000         0.00000         0.00000         0.00000         0.00000         0.00000         0.00000         0.00000         0.00000         0.00000         0.00000         0.00000         0.00000         0.00000         0.00000         0.00000         0.00000         0.00000         0.00000         0.00000         0.00000         0.00000         0.00000         0.00000         0.00000         0.00000         0.00000         0.00000         0.00000         0.00000         0.00000         0.00000         0.00000         0.00000         0.00000         0.00000         0.00000         0.00000         0.00000         0.00000         0.00000         0.00000         0.00000         0.00000         0.00000         0.00000         0.00000         0.00000         0.00000         0.00000         0.00000         0.00000         0.00000         0.00000         0.00000         0.00000         0.00000         0.00000         0.00000         0.00000         0.00000         0.00000         0.00000         0.00000         0.00000         0.00000         0.00000         0.00000         0.00000         0.00000         0.00000         0.00000         0.00000         0.00000         0.00000         0.00000         0.00000         0.00000         0.00000         0.00000         0.00000         0.00000         0.00000         0.00000         0.00000         0.00000         0.00000        0.840911        0.840911        0.860318        0.880004        0.899114        0.916940        0.933049        0.945243        0.956101        0.965557        0.973563        0.980155        0.985438        0.989557        0.992745        0.995115        0.996816        0.997993        0.998779        0.999282        0.999593        0.999778        0.999883        0.999940        0.999970        0.999985        0.999993        0.999997        0.999998        0.999999         1.00000         1.00000         1.00000         1.00000         1.00000         1.00000         1.00000         1.00000         1.00000        0.999999        0.999997        0.999992        0.999977        0.999930        0.999798        0.999457        0.998658        0.996957        0.993662        0.987812        0.978221        0.963595        0.942702        0.914569        0.878663        0.835016        0.784274        0.727517        0.666252        0.602252        0.537381        0.473425        0.411965        0.354285        0.301339        0.253747        0.211836        0.175025        0.143227        0.116184        9.351614E-02    7.477539E-02    5.948447E-02    4.717407E-02    3.740617E-02    2.963697E-02    2.265161E-02    1.726390E-02    1.314533E-02    1.002366E-02    7.680654E-03    5.949285E-03    4.715293E-03    4.715293E-03    1.757357E-03    9.890169E-04    5.922896E-04    7.513898E-04     0.00000         0.00000         0.00000         0.00000         0.00000         0.00000         0.00000         0.00000        3.238560E-05     0.00000         0.00000         0.00000         0.00000         0.00000         0.00000         0.00000         0.00000         0.00000         0.00000         0.00000         0.00000         0.00000         0.00000         0.00000         0.00000         0.00000         0.00000         0.00000         0.00000         0.00000         0.00000         0.00000         0.00000         0.00000         0.00000         0.00000         0.00000         0.00000         0.00000         0.00000         0.00000         0.00000         0.00000         0.00000         0.00000         0.00000         0.00000         0.00000         0.00000         0.00000         0.00000         0.00000         0.00000         0.00000         0.00000         0.00000         0.00000         0.00000         0.00000         0.00000         0.00000         0.00000         0.00000         0.00000         0.00000         0.00000         0.00000         0.00000         0.00000         0.00000         0.00000         0.00000         0.00000         0.00000         0.00000         0.00000         0.00000         0.00000         0.00000         0.00000         0.00000         0.00000         0.00000         0.00000         0.00000         0.00000         0.00000         0.00000         0.00000         0.00000         0.00000         0.00000         0.00000         0.00000         0.00000         0.00000         0.00000         0.00000         0.00000         0.00000         0.00000         0.00000         0.00000         0.00000         0.00000         0.00000         0.00000         0.00000         0.00000         0.00000         0.00000         0.00000         0.00000         0.00000         0.00000         0.00000         0.00000         0.00000         0.00000         0.00000         0.00000         0.00000         0.00000         0.00000         0.00000         0.00000         0.00000         0.00000         0.00000         0.00000         0.00000         0.00000         0.00000         0.00000         0.00000         0.00000         0.00000         0.00000         0.00000         0.00000         0.00000         0.00000         0.00000         0.00000         0.00000         0.00000         0.00000         0.00000         0.00000         0.00000         0.00000         0.00000         0.00000         0.00000         0.00000         0.00000         0.00000         0.00000         0.00000         0.00000         0.00000         0.00000         0.00000         0.00000         0.00000         0.00000         0.00000         0.00000         0.00000         0.00000         0.00000         0.00000         0.00000         0.00000         0.00000         0.00000         0.00000         0.00000    
1
  CONCENTRATION IN LAYER  31 AT END OF TIME STEP  73 IN STRESS PERIOD    1
  ---------------------------------------------------------------------------

 ........................................................................................................................................................................................................................................................................................................................................................................................................................................................................................................................................................................................................................................................................................................................................................................................................................................................................................................................................................................................................................................
   1      0.00000         0.00000         0.00000         0.00000         0.00000         0.00000         0.00000         0.00000         0.00000         0.00000         0.00000         0.00000         0.00000         0.00000         0.00000         0.00000         0.00000         0.00000         0.00000         0.00000         0.00000         0.00000         0.00000         0.00000         0.00000         0.00000         0.00000         0.00000         0.00000         0.00000         0.00000         0.00000         0.00000         0.00000         0.00000         0.00000         0.00000         0.00000         0.00000         0.00000         0.00000         0.00000         0.00000         0.00000         0.00000         0.00000         0.00000         0.00000         0.00000         0.00000         0.00000         0.00000         0.00000         0.00000         0.00000         0.00000         0.00000         0.00000         0.00000         0.00000         0.00000         0.00000         0.00000         0.00000         0.00000         0.00000         0.00000         0.00000         0.00000         0.00000         0.00000         0.00000         0.00000         0.00000         0.00000         0.00000         0.00000         0.00000         0.00000         0.00000         0.00000         0.00000         0.00000         0.00000         0.00000         0.00000         0.00000         0.00000         0.00000         0.00000         0.00000         0.00000         0.00000         0.00000         0.00000         0.00000         0.00000         0.00000         0.00000         0.00000         0.00000         0.00000         0.00000         0.00000         0.00000         0.00000         0.00000         0.00000         0.00000         0.00000         0.00000         0.00000         0.00000         0.00000         0.00000         0.00000         0.00000         0.00000         0.00000         0.00000         0.00000         0.00000         0.00000         0.00000         0.00000         0.00000         0.00000        0.541105        0.364263         0.00000        0.694771        0.694771        0.719580        0.746193        0.773378        0.797818        0.818997        0.839860        0.860002        0.879013        0.896604        0.912565        0.927398        0.940746        0.952487        0.962599        0.971128        0.978172        0.983884        0.988386        0.991835        0.994403        0.996261        0.997567        0.998457        0.999047        0.999426        0.999662        0.999804        0.999889        0.999937        0.999965        0.999980        0.999989        0.999993        0.999996        0.999997        0.999998        0.999998        0.999998        0.999997        0.999996        0.999993        0.999986        0.999970        0.999930        0.999832        0.999601        0.999078        0.997967        0.995770        0.991739        0.984868        0.973946        0.957686        0.934896        0.904677        0.866590        0.820764        0.767920        0.709311        0.646555        0.581494        0.516024        0.451925        0.390740        0.333685        0.281620        0.235053        0.194178        0.158929        0.128924        0.103712        8.279014E-02    6.562686E-02    5.169812E-02    4.050802E-02    3.160498E-02    2.459214E-02    1.913141E-02    1.479672E-02    1.139195E-02    8.741966E-03    6.696606E-03    5.130762E-03    3.943021E-03    3.052812E-03    2.363139E-03    1.757357E-03    1.312349E-03    9.871494E-04    7.513898E-04    5.838440E-04    4.722890E-04    4.722890E-04    1.533714E-05     0.00000         0.00000         0.00000         0.00000        3.238560E-05     0.00000         0.00000         0.00000         0.00000         0.00000         0.00000         0.00000         0.00000         0.00000         0.00000         0.00000         0.00000         0.00000         0.00000         0.00000         0.00000         0.00000         0.00000         0.00000         0.00000         0.00000         0.00000         0.00000         0.00000         0.00000         0.00000         0.00000         0.00000         0.00000         0.00000         0.00000         0.00000         0.00000         0.00000         0.00000         0.00000         0.00000         0.00000         0.00000         0.00000         0.00000         0.00000         0.00000         0.00000         0.00000         0.00000         0.00000         0.00000         0.00000         0.00000         0.00000         0.00000         0.00000         0.00000         0.00000         0.00000         0.00000         0.00000         0.00000         0.00000         0.00000         0.00000         0.00000         0.00000         0.00000         0.00000         0.00000         0.00000         0.00000         0.00000         0.00000         0.00000         0.00000         0.00000         0.00000         0.00000         0.00000         0.00000         0.00000         0.00000         0.00000         0.00000         0.00000         0.00000         0.00000         0.00000         0.00000         0.00000         0.00000         0.00000         0.00000         0.00000         0.00000         0.00000         0.00000         0.00000         0.00000         0.00000         0.00000         0.00000         0.00000         0.00000         0.00000         0.00000         0.00000         0.00000         0.00000         0.00000         0.00000         0.00000         0.00000         0.00000         0.00000         0.00000         0.00000         0.00000         0.00000         0.00000         0.00000         0.00000         0.00000         0.00000         0.00000         0.00000         0.00000         0.00000         0.00000         0.00000         0.00000         0.00000         0.00000         0.00000         0.00000         0.00000         0.00000         0.00000         0.00000         0.00000         0.00000         0.00000         0.00000         0.00000         0.00000         0.00000         0.00000         0.00000         0.00000         0.00000         0.00000         0.00000         0.00000         0.00000         0.00000         0.00000         0.00000         0.00000         0.00000         0.00000         0.00000         0.00000         0.00000         0.00000         0.00000         0.00000         0.00000         0.00000         0.00000         0.00000         0.00000    
1
  CONCENTRATION IN LAYER  32 AT END OF TIME STEP  73 IN STRESS PERIOD    1
  ---------------------------------------------------------------------------

 ........................................................................................................................................................................................................................................................................................................................................................................................................................................................................................................................................................................................................................................................................................................................................................................................................................................................................................................................................................................................................................................
   1      0.00000         0.00000         0.00000         0.00000         0.00000         0.00000         0.00000         0.00000         0.00000         0.00000         0.00000         0.00000         0.00000         0.00000         0.00000         0.00000         0.00000         0.00000         0.00000         0.00000         0.00000         0.00000         0.00000         0.00000         0.00000         0.00000         0.00000         0.00000         0.00000         0.00000         0.00000         0.00000         0.00000         0.00000         0.00000         0.00000         0.00000         0.00000         0.00000         0.00000         0.00000         0.00000         0.00000         0.00000         0.00000         0.00000         0.00000         0.00000         0.00000         0.00000         0.00000         0.00000         0.00000         0.00000         0.00000         0.00000         0.00000         0.00000         0.00000         0.00000         0.00000         0.00000         0.00000         0.00000         0.00000         0.00000         0.00000         0.00000         0.00000         0.00000         0.00000         0.00000         0.00000         0.00000         0.00000         0.00000         0.00000         0.00000         0.00000         0.00000         0.00000         0.00000         0.00000         0.00000         0.00000         0.00000         0.00000         0.00000         0.00000         0.00000         0.00000         0.00000         0.00000         0.00000         0.00000         0.00000         0.00000         0.00000         0.00000         0.00000         0.00000         0.00000         0.00000         0.00000         0.00000         0.00000         0.00000         0.00000         0.00000         0.00000         0.00000         0.00000         0.00000         0.00000         0.00000         0.00000         0.00000         0.00000         0.00000         0.00000         0.00000         0.00000         0.00000         0.00000         0.00000         0.00000        0.541105        0.541105        0.563469        0.589059        0.616752        0.636008        0.657452        0.679679        0.702042        0.723959        0.746626        0.769570        0.792375        0.814724        0.836355        0.857064        0.876796        0.895232        0.912147        0.927397        0.940909        0.952675        0.962747        0.971194        0.978128        0.983701        0.988082        0.991450        0.993984        0.995848        0.997187        0.998128        0.998774        0.999208        0.999494        0.999678        0.999795        0.999868        0.999913        0.999941        0.999957        0.999967        0.999972        0.999972        0.999960        0.999942        0.999906        0.999835        0.999693        0.999408        0.998844        0.997757        0.995742        0.992184        0.986228        0.976801        0.962699        0.942722        0.915858        0.881450        0.839340        0.789931        0.734177        0.673488        0.609590        0.544338        0.479560        0.416916        0.357793        0.303236        0.253935        0.210241        0.172209        0.139654        0.112216        8.939907E-02    7.066227E-02    5.545320E-02    4.323839E-02    3.352316E-02    2.586418E-02    1.987532E-02    1.522858E-02    1.165025E-02    8.896054E-03    6.781966E-03    5.164377E-03    3.930615E-03    2.992628E-03    2.282119E-03    1.746764E-03    1.345984E-03    1.033623E-03    7.929767E-04    6.091849E-04    4.699716E-04    3.656912E-04    2.890110E-04    2.234047E-04    1.687086E-04    1.290439E-04    1.006458E-04    8.117362E-05    8.117362E-05    3.238560E-05    1.289000E-05     0.00000         0.00000         0.00000         0.00000         0.00000         0.00000         0.00000         0.00000         0.00000         0.00000         0.00000         0.00000         0.00000         0.00000         0.00000         0.00000         0.00000         0.00000         0.00000         0.00000         0.00000         0.00000         0.00000         0.00000         0.00000         0.00000         0.00000         0.00000         0.00000         0.00000         0.00000         0.00000         0.00000         0.00000         0.00000         0.00000         0.00000         0.00000         0.00000         0.00000         0.00000         0.00000         0.00000         0.00000         0.00000         0.00000         0.00000         0.00000         0.00000         0.00000         0.00000         0.00000         0.00000         0.00000         0.00000         0.00000         0.00000         0.00000         0.00000         0.00000         0.00000         0.00000         0.00000         0.00000         0.00000         0.00000         0.00000         0.00000         0.00000         0.00000         0.00000         0.00000         0.00000         0.00000         0.00000         0.00000         0.00000         0.00000         0.00000         0.00000         0.00000         0.00000         0.00000         0.00000         0.00000         0.00000         0.00000         0.00000         0.00000         0.00000         0.00000         0.00000         0.00000         0.00000         0.00000         0.00000         0.00000         0.00000         0.00000         0.00000         0.00000         0.00000         0.00000         0.00000         0.00000         0.00000         0.00000         0.00000         0.00000         0.00000         0.00000         0.00000         0.00000         0.00000         0.00000         0.00000         0.00000         0.00000         0.00000         0.00000         0.00000         0.00000         0.00000         0.00000         0.00000         0.00000         0.00000         0.00000         0.00000         0.00000         0.00000         0.00000         0.00000         0.00000         0.00000         0.00000         0.00000         0.00000         0.00000         0.00000         0.00000         0.00000         0.00000         0.00000         0.00000         0.00000         0.00000         0.00000         0.00000         0.00000         0.00000         0.00000         0.00000         0.00000         0.00000         0.00000         0.00000         0.00000         0.00000         0.00000         0.00000         0.00000         0.00000         0.00000         0.00000         0.00000         0.00000         0.00000    
1
  CONCENTRATION IN LAYER  33 AT END OF TIME STEP  73 IN STRESS PERIOD    1
  ---------------------------------------------------------------------------

 ........................................................................................................................................................................................................................................................................................................................................................................................................................................................................................................................................................................................................................................................................................................................................................................................................................................................................................................................................................................................................................................
   1      0.00000         0.00000         0.00000         0.00000         0.00000         0.00000         0.00000         0.00000         0.00000         0.00000         0.00000         0.00000         0.00000         0.00000         0.00000         0.00000         0.00000         0.00000         0.00000         0.00000         0.00000         0.00000         0.00000         0.00000         0.00000         0.00000         0.00000         0.00000         0.00000         0.00000         0.00000         0.00000         0.00000         0.00000         0.00000         0.00000         0.00000         0.00000         0.00000         0.00000         0.00000         0.00000         0.00000         0.00000         0.00000         0.00000         0.00000         0.00000         0.00000         0.00000         0.00000         0.00000         0.00000         0.00000         0.00000         0.00000         0.00000         0.00000         0.00000         0.00000         0.00000         0.00000         0.00000         0.00000         0.00000         0.00000         0.00000         0.00000         0.00000         0.00000         0.00000         0.00000         0.00000         0.00000         0.00000         0.00000         0.00000         0.00000         0.00000         0.00000         0.00000         0.00000         0.00000         0.00000         0.00000         0.00000         0.00000         0.00000         0.00000         0.00000         0.00000         0.00000         0.00000         0.00000         0.00000         0.00000         0.00000         0.00000         0.00000         0.00000         0.00000         0.00000         0.00000         0.00000         0.00000         0.00000         0.00000         0.00000         0.00000         0.00000         0.00000         0.00000         0.00000         0.00000         0.00000         0.00000         0.00000         0.00000         0.00000         0.00000         0.00000        0.178181         0.00000        0.426491        0.426491        0.444411        0.465569        0.478483        0.492677        0.507797        0.523323        0.538559        0.556293        0.575603        0.596138        0.617778        0.640874        0.665031        0.689877        0.715089        0.740374        0.765462        0.790128        0.814055        0.836943        0.858537        0.878634        0.897085        0.913796        0.928708        0.941808        0.953134        0.962770        0.970835        0.977473        0.982846        0.987119        0.990458        0.993020        0.994950        0.996379        0.997417        0.998159        0.998680        0.999041        0.999285        0.999446        0.999547        0.999602        0.999614        0.999480        0.999284        0.998943        0.998353        0.997348        0.995662        0.992887        0.988441        0.981547        0.971251        0.956484        0.936179        0.909418        0.875583        0.834489        0.786448        0.732279        0.673239        0.610902        0.547010        0.483309        0.421412        0.362694        0.308225        0.258745        0.214667        0.176109        0.142949        0.114878        9.146262E-02    7.219218E-02    5.652703E-02    4.393668E-02    3.392361E-02    2.603699E-02    1.987992E-02    1.511151E-02    1.144526E-02    8.644735E-03    6.517614E-03    4.907635E-03    3.692890E-03    2.778825E-03    2.092500E-03    1.578038E-03    1.192967E-03    9.052688E-04    6.908141E-04    5.292069E-04    4.069132E-04    3.141793E-04    2.438086E-04    1.904848E-04    1.503279E-04    1.198030E-04    9.527990E-05    7.598758E-05    6.105918E-05    4.976876E-05    4.150226E-05    3.238560E-05    2.578000E-05    2.116567E-05    2.035214E-05    2.035214E-05     0.00000         0.00000        7.219336E-06     0.00000         0.00000         0.00000         0.00000         0.00000         0.00000         0.00000         0.00000         0.00000         0.00000         0.00000         0.00000         0.00000         0.00000         0.00000         0.00000         0.00000         0.00000         0.00000         0.00000         0.00000         0.00000         0.00000         0.00000         0.00000         0.00000         0.00000         0.00000         0.00000         0.00000         0.00000         0.00000         0.00000         0.00000         0.00000         0.00000         0.00000         0.00000         0.00000         0.00000         0.00000         0.00000         0.00000         0.00000         0.00000         0.00000         0.00000         0.00000         0.00000         0.00000         0.00000         0.00000         0.00000         0.00000         0.00000         0.00000         0.00000         0.00000         0.00000         0.00000         0.00000         0.00000         0.00000         0.00000         0.00000         0.00000         0.00000         0.00000         0.00000         0.00000         0.00000         0.00000         0.00000         0.00000         0.00000         0.00000         0.00000         0.00000         0.00000         0.00000         0.00000         0.00000         0.00000         0.00000         0.00000         0.00000         0.00000         0.00000         0.00000         0.00000         0.00000         0.00000         0.00000         0.00000         0.00000         0.00000         0.00000         0.00000         0.00000         0.00000         0.00000         0.00000         0.00000         0.00000         0.00000         0.00000         0.00000         0.00000         0.00000         0.00000         0.00000         0.00000         0.00000         0.00000         0.00000         0.00000         0.00000         0.00000         0.00000         0.00000         0.00000         0.00000         0.00000         0.00000         0.00000         0.00000         0.00000         0.00000         0.00000         0.00000         0.00000         0.00000         0.00000         0.00000         0.00000         0.00000         0.00000         0.00000         0.00000         0.00000         0.00000         0.00000         0.00000         0.00000         0.00000         0.00000         0.00000         0.00000         0.00000         0.00000         0.00000         0.00000         0.00000         0.00000         0.00000         0.00000         0.00000         0.00000         0.00000         0.00000         0.00000         0.00000    
1
  CONCENTRATION IN LAYER  34 AT END OF TIME STEP  73 IN STRESS PERIOD    1
  ---------------------------------------------------------------------------

 ........................................................................................................................................................................................................................................................................................................................................................................................................................................................................................................................................................................................................................................................................................................................................................................................................................................................................................................................................................................................................................................
   1      0.00000         0.00000         0.00000         0.00000         0.00000         0.00000         0.00000         0.00000         0.00000         0.00000         0.00000         0.00000         0.00000         0.00000         0.00000         0.00000         0.00000         0.00000         0.00000         0.00000         0.00000         0.00000         0.00000         0.00000         0.00000         0.00000         0.00000         0.00000         0.00000         0.00000         0.00000         0.00000         0.00000         0.00000         0.00000         0.00000         0.00000         0.00000         0.00000         0.00000         0.00000         0.00000         0.00000         0.00000         0.00000         0.00000         0.00000         0.00000         0.00000         0.00000         0.00000         0.00000         0.00000         0.00000         0.00000         0.00000         0.00000         0.00000         0.00000         0.00000         0.00000         0.00000         0.00000         0.00000         0.00000         0.00000         0.00000         0.00000         0.00000         0.00000         0.00000         0.00000         0.00000         0.00000         0.00000         0.00000         0.00000         0.00000         0.00000         0.00000         0.00000         0.00000         0.00000         0.00000         0.00000         0.00000         0.00000         0.00000         0.00000         0.00000         0.00000         0.00000         0.00000         0.00000         0.00000         0.00000         0.00000         0.00000         0.00000         0.00000         0.00000         0.00000         0.00000         0.00000         0.00000         0.00000         0.00000         0.00000         0.00000         0.00000         0.00000         0.00000         0.00000         0.00000         0.00000         0.00000         0.00000         0.00000         0.00000         0.00000        0.345226        0.345226        0.345868        0.359888        0.363604        0.367769        0.371866        0.374952        0.381080        0.389190        0.398999        0.410534        0.424465        0.440490        0.458393        0.478069        0.499542        0.522602        0.547005        0.572506        0.598872        0.625875        0.653295        0.680863        0.708294        0.735307        0.761635        0.787039        0.811304        0.834233        0.855662        0.875461        0.893543        0.909864        0.924420        0.937241        0.948390        0.957956        0.966049        0.972797        0.978340        0.982824        0.986393        0.989188        0.991336        0.992951        0.994129        0.994943        0.995430        0.995558        0.994545        0.992891        0.990398        0.986706        0.981350        0.973734        0.963133        0.948729        0.929671        0.905177        0.874637        0.837732        0.794508        0.745425        0.691342        0.633454        0.573189        0.512087        0.451667        0.393321        0.338220        0.287266        0.241069        0.199959        0.164012        0.133094        0.106910        8.505456E-02    6.705806E-02    5.242509E-02    4.066528E-02    3.131566E-02    2.395602E-02    1.821610E-02    1.377743E-02    1.037166E-02    7.776862E-03    5.812441E-03    4.333547E-03    3.225433E-03    2.398160E-03    1.782440E-03    1.325336E-03    9.866492E-04    7.360444E-04    5.507677E-04    4.138431E-04    3.126232E-04    2.374876E-04    1.815083E-04    1.396588E-04    1.082725E-04    8.467748E-05    6.693957E-05    5.359335E-05    4.328099E-05    3.525067E-05    2.899636E-05    2.417723E-05    2.062650E-05    1.751282E-05    1.492836E-05    1.288091E-05    1.133757E-05    9.623226E-06    8.137369E-06    7.219336E-06    7.219336E-06     0.00000         0.00000         0.00000         0.00000         0.00000         0.00000         0.00000         0.00000         0.00000         0.00000         0.00000         0.00000         0.00000         0.00000         0.00000         0.00000         0.00000         0.00000         0.00000         0.00000         0.00000         0.00000         0.00000         0.00000         0.00000         0.00000         0.00000         0.00000         0.00000         0.00000         0.00000         0.00000         0.00000         0.00000         0.00000         0.00000         0.00000         0.00000         0.00000         0.00000         0.00000         0.00000         0.00000         0.00000         0.00000         0.00000         0.00000         0.00000         0.00000         0.00000         0.00000         0.00000         0.00000         0.00000         0.00000         0.00000         0.00000         0.00000         0.00000         0.00000         0.00000         0.00000         0.00000         0.00000         0.00000         0.00000         0.00000         0.00000         0.00000         0.00000         0.00000         0.00000         0.00000         0.00000         0.00000         0.00000         0.00000         0.00000         0.00000         0.00000         0.00000         0.00000         0.00000         0.00000         0.00000         0.00000         0.00000         0.00000         0.00000         0.00000         0.00000         0.00000         0.00000         0.00000         0.00000         0.00000         0.00000         0.00000         0.00000         0.00000         0.00000         0.00000         0.00000         0.00000         0.00000         0.00000         0.00000         0.00000         0.00000         0.00000         0.00000         0.00000         0.00000         0.00000         0.00000         0.00000         0.00000         0.00000         0.00000         0.00000         0.00000         0.00000         0.00000         0.00000         0.00000         0.00000         0.00000         0.00000         0.00000         0.00000         0.00000         0.00000         0.00000         0.00000         0.00000         0.00000         0.00000         0.00000         0.00000         0.00000         0.00000         0.00000         0.00000         0.00000         0.00000         0.00000         0.00000         0.00000         0.00000         0.00000         0.00000         0.00000         0.00000         0.00000         0.00000         0.00000         0.00000         0.00000         0.00000         0.00000         0.00000         0.00000    
1
  CONCENTRATION IN LAYER  35 AT END OF TIME STEP  73 IN STRESS PERIOD    1
  ---------------------------------------------------------------------------

 ........................................................................................................................................................................................................................................................................................................................................................................................................................................................................................................................................................................................................................................................................................................................................................................................................................................................................................................................................................................................................................................
   1      0.00000         0.00000         0.00000         0.00000         0.00000         0.00000         0.00000         0.00000         0.00000         0.00000         0.00000         0.00000         0.00000         0.00000         0.00000         0.00000         0.00000         0.00000         0.00000         0.00000         0.00000         0.00000         0.00000         0.00000         0.00000         0.00000         0.00000         0.00000         0.00000         0.00000         0.00000         0.00000         0.00000         0.00000         0.00000         0.00000         0.00000         0.00000         0.00000         0.00000         0.00000         0.00000         0.00000         0.00000         0.00000         0.00000         0.00000         0.00000         0.00000         0.00000         0.00000         0.00000         0.00000         0.00000         0.00000         0.00000         0.00000         0.00000         0.00000         0.00000         0.00000         0.00000         0.00000         0.00000         0.00000         0.00000         0.00000         0.00000         0.00000         0.00000         0.00000         0.00000         0.00000         0.00000         0.00000         0.00000         0.00000         0.00000         0.00000         0.00000         0.00000         0.00000         0.00000         0.00000         0.00000         0.00000         0.00000         0.00000         0.00000         0.00000         0.00000         0.00000         0.00000         0.00000         0.00000         0.00000         0.00000         0.00000         0.00000         0.00000         0.00000         0.00000         0.00000         0.00000         0.00000         0.00000         0.00000         0.00000         0.00000         0.00000         0.00000         0.00000         0.00000         0.00000         0.00000         0.00000         0.00000         0.00000         0.00000        0.282949        0.282949        0.284258        0.276979        0.269246        0.259671        0.253942        0.250632        0.249382        0.251052        0.255122        0.261269        0.269373        0.279498        0.291526        0.305348        0.320899        0.338157        0.357046        0.377463        0.399294        0.422424        0.446737        0.472108        0.498385        0.525390        0.552929        0.580800        0.608799        0.636721        0.664356        0.691497        0.717944        0.743511        0.768031        0.791353        0.813349        0.833911        0.852951        0.870404        0.886227        0.900405        0.912946        0.923882        0.933264        0.941163        0.947658        0.952824        0.956713        0.959302        0.960279        0.955502        0.945406        0.933292        0.918228        0.899607        0.876897        0.849658        0.817592        0.780604        0.738840        0.692716        0.642904        0.590304        0.535980        0.481085        0.426780        0.374155        0.324161        0.277566        0.234931        0.196596        0.162701        0.133208        0.107932        8.658232E-02    6.879552E-02    5.416870E-02    4.228738E-02    3.274709E-02    2.516894E-02    1.920966E-02    1.456699E-02    1.098128E-02    8.234087E-03    6.144886E-03    4.566839E-03    3.382200E-03    2.497773E-03    1.840645E-03    1.354380E-03    9.957356E-04    7.319357E-04    5.383258E-04    3.964670E-04    2.926412E-04    2.166906E-04    1.611233E-04    1.204275E-04    9.054740E-05    6.854554E-05    5.229604E-05    4.025739E-05    3.131164E-05    2.464831E-05    1.967133E-05    1.591126E-05    1.304956E-05    1.086636E-05    9.210921E-06    7.984607E-06    7.023109E-06    6.266019E-06    5.689118E-06    5.295795E-06    5.010356E-06    4.735523E-06    4.538288E-06    4.222237E-06    4.049331E-06    4.049331E-06    1.287761E-06     0.00000         0.00000         0.00000         0.00000         0.00000         0.00000         0.00000         0.00000         0.00000         0.00000         0.00000         0.00000         0.00000         0.00000         0.00000         0.00000         0.00000         0.00000         0.00000         0.00000         0.00000         0.00000         0.00000         0.00000         0.00000         0.00000         0.00000         0.00000         0.00000         0.00000         0.00000         0.00000         0.00000         0.00000         0.00000         0.00000         0.00000         0.00000         0.00000         0.00000         0.00000         0.00000         0.00000         0.00000         0.00000         0.00000         0.00000         0.00000         0.00000         0.00000         0.00000         0.00000         0.00000         0.00000         0.00000         0.00000         0.00000         0.00000         0.00000         0.00000         0.00000         0.00000         0.00000         0.00000         0.00000         0.00000         0.00000         0.00000         0.00000         0.00000         0.00000         0.00000         0.00000         0.00000         0.00000         0.00000         0.00000         0.00000         0.00000         0.00000         0.00000         0.00000         0.00000         0.00000         0.00000         0.00000         0.00000         0.00000         0.00000         0.00000         0.00000         0.00000         0.00000         0.00000         0.00000         0.00000         0.00000         0.00000         0.00000         0.00000         0.00000         0.00000         0.00000         0.00000         0.00000         0.00000         0.00000         0.00000         0.00000         0.00000         0.00000         0.00000         0.00000         0.00000         0.00000         0.00000         0.00000         0.00000         0.00000         0.00000         0.00000         0.00000         0.00000         0.00000         0.00000         0.00000         0.00000         0.00000         0.00000         0.00000         0.00000         0.00000         0.00000         0.00000         0.00000         0.00000         0.00000         0.00000         0.00000         0.00000         0.00000         0.00000         0.00000         0.00000         0.00000         0.00000         0.00000         0.00000         0.00000         0.00000         0.00000         0.00000         0.00000         0.00000         0.00000         0.00000         0.00000         0.00000         0.00000    
1
  CONCENTRATION IN LAYER  36 AT END OF TIME STEP  73 IN STRESS PERIOD    1
  ---------------------------------------------------------------------------

 ........................................................................................................................................................................................................................................................................................................................................................................................................................................................................................................................................................................................................................................................................................................................................................................................................................................................................................................................................................................................................................................
   1      0.00000         0.00000         0.00000         0.00000         0.00000         0.00000         0.00000         0.00000         0.00000         0.00000         0.00000         0.00000         0.00000         0.00000         0.00000         0.00000         0.00000         0.00000         0.00000         0.00000         0.00000         0.00000         0.00000         0.00000         0.00000         0.00000         0.00000         0.00000         0.00000         0.00000         0.00000         0.00000         0.00000         0.00000         0.00000         0.00000         0.00000         0.00000         0.00000         0.00000         0.00000         0.00000         0.00000         0.00000         0.00000         0.00000         0.00000         0.00000         0.00000         0.00000         0.00000         0.00000         0.00000         0.00000         0.00000         0.00000         0.00000         0.00000         0.00000         0.00000         0.00000         0.00000         0.00000         0.00000         0.00000         0.00000         0.00000         0.00000         0.00000         0.00000         0.00000         0.00000         0.00000         0.00000         0.00000         0.00000         0.00000         0.00000         0.00000         0.00000         0.00000         0.00000         0.00000         0.00000         0.00000         0.00000         0.00000         0.00000         0.00000         0.00000         0.00000         0.00000         0.00000         0.00000         0.00000         0.00000         0.00000         0.00000         0.00000         0.00000         0.00000         0.00000         0.00000         0.00000         0.00000         0.00000         0.00000         0.00000         0.00000         0.00000         0.00000         0.00000         0.00000         0.00000         0.00000         0.00000         0.00000         0.00000        0.229086        0.229086        0.215435        0.197719        0.177261        0.162881        0.152686        0.146750        0.143808        0.143172        0.144615        0.147811        0.152536        0.158675        0.166188        0.175034        0.185181        0.196614        0.209332        0.223322        0.238559        0.255012        0.272642        0.291401        0.311229        0.332047        0.353757        0.376243        0.399377        0.423018        0.447016        0.471214        0.495446        0.519548        0.543355        0.566710        0.589458        0.611455        0.632558        0.652630        0.671532        0.689124        0.705261        0.719789        0.732539        0.743328        0.751947        0.758161        0.761692        0.762194        0.759144        0.751333        0.728784        0.710337        0.690895        0.668363        0.642431        0.613151        0.580751        0.545592        0.508149        0.468986        0.428736        0.388075        0.347691        0.308250        0.270367        0.234574        0.201304        0.170869        0.143464        0.119163        9.793550E-02    7.965975E-02    6.414470E-02    5.115020E-02    4.040709E-02    3.163486E-02    2.455615E-02    1.890773E-02    1.444813E-02    1.096204E-02    8.262231E-03    6.189440E-03    4.610832E-03    3.417536E-03    2.521691E-03    1.853374E-03    1.357631E-03    9.917698E-04    7.229658E-04    5.262245E-04    3.826830E-04    2.782268E-04    2.023690E-04    1.473635E-04    1.075170E-04    7.866360E-05    5.776561E-05    4.261492E-05    3.161088E-05    2.359990E-05    1.775231E-05    1.347138E-05    1.032778E-05    8.012199E-06    6.300599E-06    5.028462E-06    4.079056E-06    3.369931E-06    2.842969E-06    2.456927E-06    2.174513E-06    1.973319E-06    1.842263E-06    1.780736E-06    1.785377E-06    1.839849E-06    1.967619E-06    2.203960E-06    2.394123E-06    2.575522E-06    2.575522E-06     0.00000         0.00000         0.00000         0.00000         0.00000         0.00000         0.00000         0.00000         0.00000         0.00000         0.00000         0.00000         0.00000         0.00000         0.00000         0.00000         0.00000         0.00000         0.00000         0.00000         0.00000         0.00000         0.00000         0.00000         0.00000         0.00000         0.00000         0.00000         0.00000         0.00000         0.00000         0.00000         0.00000         0.00000         0.00000         0.00000         0.00000         0.00000         0.00000         0.00000         0.00000         0.00000         0.00000         0.00000         0.00000         0.00000         0.00000         0.00000         0.00000         0.00000         0.00000         0.00000         0.00000         0.00000         0.00000         0.00000         0.00000         0.00000         0.00000         0.00000         0.00000         0.00000         0.00000         0.00000         0.00000         0.00000         0.00000         0.00000         0.00000         0.00000         0.00000         0.00000         0.00000         0.00000         0.00000         0.00000         0.00000         0.00000         0.00000         0.00000         0.00000         0.00000         0.00000         0.00000         0.00000         0.00000         0.00000         0.00000         0.00000         0.00000         0.00000         0.00000         0.00000         0.00000         0.00000         0.00000         0.00000         0.00000         0.00000         0.00000         0.00000         0.00000         0.00000         0.00000         0.00000         0.00000         0.00000         0.00000         0.00000         0.00000         0.00000         0.00000         0.00000         0.00000         0.00000         0.00000         0.00000         0.00000         0.00000         0.00000         0.00000         0.00000         0.00000         0.00000         0.00000         0.00000         0.00000         0.00000         0.00000         0.00000         0.00000         0.00000         0.00000         0.00000         0.00000         0.00000         0.00000         0.00000         0.00000         0.00000         0.00000         0.00000         0.00000         0.00000         0.00000         0.00000         0.00000         0.00000         0.00000         0.00000         0.00000         0.00000         0.00000         0.00000         0.00000         0.00000         0.00000         0.00000         0.00000    
1
  CONCENTRATION IN LAYER  37 AT END OF TIME STEP  73 IN STRESS PERIOD    1
  ---------------------------------------------------------------------------

 ........................................................................................................................................................................................................................................................................................................................................................................................................................................................................................................................................................................................................................................................................................................................................................................................................................................................................................................................................................................................................................................
   1      0.00000         0.00000         0.00000         0.00000         0.00000         0.00000         0.00000         0.00000         0.00000         0.00000         0.00000         0.00000         0.00000         0.00000         0.00000         0.00000         0.00000         0.00000         0.00000         0.00000         0.00000         0.00000         0.00000         0.00000         0.00000         0.00000         0.00000         0.00000         0.00000         0.00000         0.00000         0.00000         0.00000         0.00000         0.00000         0.00000         0.00000         0.00000         0.00000         0.00000         0.00000         0.00000         0.00000         0.00000         0.00000         0.00000         0.00000         0.00000         0.00000         0.00000         0.00000         0.00000         0.00000         0.00000         0.00000         0.00000         0.00000         0.00000         0.00000         0.00000         0.00000         0.00000         0.00000         0.00000         0.00000         0.00000         0.00000         0.00000         0.00000         0.00000         0.00000         0.00000         0.00000         0.00000         0.00000         0.00000         0.00000         0.00000         0.00000         0.00000         0.00000         0.00000         0.00000         0.00000         0.00000         0.00000         0.00000         0.00000         0.00000         0.00000         0.00000         0.00000         0.00000         0.00000         0.00000         0.00000         0.00000         0.00000         0.00000         0.00000         0.00000         0.00000         0.00000         0.00000         0.00000         0.00000         0.00000         0.00000         0.00000         0.00000         0.00000         0.00000         0.00000         0.00000         0.00000         0.00000         0.00000         0.00000        0.229085        0.229074        4.184251E-05    2.076022E-05    2.081092E-05    1.960834E-05    1.877708E-05    1.844634E-05    1.849546E-05    1.885406E-05    1.952570E-05    2.052002E-05    2.180913E-05    2.339684E-05    2.530484E-05    2.755657E-05    3.018044E-05    3.321274E-05    3.669698E-05    4.066598E-05    4.516300E-05    5.023658E-05    5.593932E-05    6.232674E-05    6.945601E-05    7.738386E-05    8.616528E-05    9.585297E-05    1.064967E-04    1.181425E-04    1.308309E-04    1.445946E-04    1.594564E-04    1.754276E-04    1.925058E-04    2.106730E-04    2.298915E-04    2.500993E-04    2.712033E-04    2.930708E-04    3.155191E-04    3.383037E-04    3.611034E-04    3.834955E-04    4.049564E-04    4.248481E-04    4.424151E-04    4.567983E-04    4.670644E-04    4.722380E-04    4.712680E-04    4.624817E-04    4.333083E-04    4.088347E-04    3.835877E-04    3.559780E-04    3.265684E-04    2.961942E-04    2.656815E-04    2.357581E-04    2.070202E-04    1.799263E-04    1.548043E-04    1.318647E-04    1.112161E-04    9.288134E-05    7.681188E-05    6.290721E-05    5.102536E-05    4.099567E-05    3.263034E-05    2.573452E-05    2.011475E-05    1.558560E-05    1.197466E-05    9.125707E-06    6.900486E-06    5.179170E-06    3.859901E-06    2.857620E-06    2.102458E-06    1.537903E-06    1.118892E-06    8.100009E-07    5.838309E-07    4.191983E-07    2.999767E-07    2.140475E-07    1.523715E-07    1.082710E-07    7.683978E-08    5.449779E-08    3.864981E-08    2.742665E-08    1.949007E-08    1.387812E-08    9.904935E-09    7.093209E-09    5.101640E-09    3.688487E-09    2.683098E-09    1.965549E-09    1.451631E-09    1.082160E-09    8.154777E-10    6.221981E-10    4.814764E-10    3.783292E-10    3.023045E-10    2.461261E-10    2.047098E-10    1.744883E-10    1.523426E-10    1.363780E-10    1.255854E-10    1.197077E-10    1.181843E-10    1.269039E-10    1.996683E-10    5.477563E-10    2.339851E-06    2.575522E-06    2.575522E-06     0.00000         0.00000         0.00000         0.00000         0.00000         0.00000         0.00000         0.00000         0.00000         0.00000         0.00000         0.00000         0.00000         0.00000         0.00000         0.00000         0.00000         0.00000         0.00000         0.00000         0.00000         0.00000         0.00000         0.00000         0.00000         0.00000         0.00000         0.00000         0.00000         0.00000         0.00000         0.00000         0.00000         0.00000         0.00000         0.00000         0.00000         0.00000         0.00000         0.00000         0.00000         0.00000         0.00000         0.00000         0.00000         0.00000         0.00000         0.00000         0.00000         0.00000         0.00000         0.00000         0.00000         0.00000         0.00000         0.00000         0.00000         0.00000         0.00000         0.00000         0.00000         0.00000         0.00000         0.00000         0.00000         0.00000         0.00000         0.00000         0.00000         0.00000         0.00000         0.00000         0.00000         0.00000         0.00000         0.00000         0.00000         0.00000         0.00000         0.00000         0.00000         0.00000         0.00000         0.00000         0.00000         0.00000         0.00000         0.00000         0.00000         0.00000         0.00000         0.00000         0.00000         0.00000         0.00000         0.00000         0.00000         0.00000         0.00000         0.00000         0.00000         0.00000         0.00000         0.00000         0.00000         0.00000         0.00000         0.00000         0.00000         0.00000         0.00000         0.00000         0.00000         0.00000         0.00000         0.00000         0.00000         0.00000         0.00000         0.00000         0.00000         0.00000         0.00000         0.00000         0.00000         0.00000         0.00000         0.00000         0.00000         0.00000         0.00000         0.00000         0.00000         0.00000         0.00000         0.00000         0.00000         0.00000         0.00000         0.00000         0.00000         0.00000         0.00000         0.00000         0.00000         0.00000         0.00000         0.00000         0.00000         0.00000         0.00000         0.00000         0.00000         0.00000         0.00000         0.00000         0.00000         0.00000         0.00000    
1
  CONCENTRATION IN LAYER  38 AT END OF TIME STEP  73 IN STRESS PERIOD    1
  ---------------------------------------------------------------------------

 ........................................................................................................................................................................................................................................................................................................................................................................................................................................................................................................................................................................................................................................................................................................................................................................................................................................................................................................................................................................................................................................
   1      0.00000         0.00000         0.00000         0.00000         0.00000         0.00000         0.00000         0.00000         0.00000         0.00000         0.00000         0.00000         0.00000         0.00000         0.00000         0.00000         0.00000         0.00000         0.00000         0.00000         0.00000         0.00000         0.00000         0.00000         0.00000         0.00000         0.00000         0.00000         0.00000         0.00000         0.00000         0.00000         0.00000         0.00000         0.00000         0.00000         0.00000         0.00000         0.00000         0.00000         0.00000         0.00000         0.00000         0.00000         0.00000         0.00000         0.00000         0.00000         0.00000         0.00000         0.00000         0.00000         0.00000         0.00000         0.00000         0.00000         0.00000         0.00000         0.00000         0.00000         0.00000         0.00000         0.00000         0.00000         0.00000         0.00000         0.00000         0.00000         0.00000         0.00000         0.00000         0.00000         0.00000         0.00000         0.00000         0.00000         0.00000         0.00000         0.00000         0.00000         0.00000         0.00000         0.00000         0.00000         0.00000         0.00000         0.00000         0.00000         0.00000         0.00000         0.00000         0.00000         0.00000         0.00000         0.00000         0.00000         0.00000         0.00000         0.00000         0.00000         0.00000         0.00000         0.00000         0.00000         0.00000         0.00000         0.00000         0.00000         0.00000         0.00000         0.00000         0.00000         0.00000         0.00000         0.00000         0.00000         0.00000         0.00000        0.229084        0.229073        9.871450E-05    2.076022E-05    2.081092E-05    1.960834E-05    1.877708E-05    1.844634E-05    1.849546E-05    1.882959E-05    6.033684E-08    1.283042E-08    7.963755E-09    6.225338E-09    5.419048E-09    5.027604E-09    4.868508E-09    4.864853E-09    4.984628E-09    5.783834E-09    6.640981E-09    7.641081E-09    8.805887E-09    1.015994E-08    1.173078E-08    1.354863E-08    1.564665E-08    1.806089E-08    2.083046E-08    2.399739E-08    2.760635E-08    3.170397E-08    3.633801E-08    4.155643E-08    4.740609E-08    5.393094E-08    6.116951E-08    6.915119E-08    7.789108E-08    8.738309E-08    9.759115E-08    1.084382E-07    1.197935E-07    1.314447E-07    1.430987E-07    1.543618E-07    1.647326E-07    1.736101E-07    1.803217E-07    1.841643E-07    1.844274E-07    1.801594E-07    1.648366E-07    1.518562E-07    1.386664E-07    1.246910E-07    1.104005E-07    9.632155E-08    8.289274E-08    7.043037E-08    5.913111E-08    4.908951E-08    4.032045E-08    3.278119E-08    2.639059E-08    2.104410E-08    1.662449E-08    1.301397E-08    1.009745E-08    7.766936E-09    5.924093E-09    4.481587E-09    3.363488E-09    2.505035E-09    1.851950E-09    1.359476E-09    9.912536E-10    7.181614E-10    5.171832E-10    3.703556E-10    2.638249E-10    1.870258E-10    1.319853E-10    9.495193E-11    7.287299E-11    5.641860E-11    4.418194E-11    3.515262E-11    2.856699E-11    2.394594E-11    2.104954E-11    2.004144E-11    2.238839E-11    4.102487E-11    1.947106E-08    1.387811E-08    9.904928E-09    7.093204E-09    5.101636E-09    3.688484E-09    2.683096E-09    1.965547E-09    1.451630E-09    1.082160E-09    8.154771E-10    6.221977E-10    4.814761E-10    3.783290E-10    3.023043E-10    2.461260E-10    2.047097E-10    1.744883E-10    1.523426E-10    1.363780E-10    1.255855E-10    1.197078E-10    1.181843E-10    1.269038E-10    1.996682E-10    5.477560E-10    2.339851E-06    2.575522E-06    2.575522E-06     0.00000         0.00000         0.00000         0.00000         0.00000         0.00000         0.00000         0.00000         0.00000         0.00000         0.00000         0.00000         0.00000         0.00000         0.00000         0.00000         0.00000         0.00000         0.00000         0.00000         0.00000         0.00000         0.00000         0.00000         0.00000         0.00000         0.00000         0.00000         0.00000         0.00000         0.00000         0.00000         0.00000         0.00000         0.00000         0.00000         0.00000         0.00000         0.00000         0.00000         0.00000         0.00000         0.00000         0.00000         0.00000         0.00000         0.00000         0.00000         0.00000         0.00000         0.00000         0.00000         0.00000         0.00000         0.00000         0.00000         0.00000         0.00000         0.00000         0.00000         0.00000         0.00000         0.00000         0.00000         0.00000         0.00000         0.00000         0.00000         0.00000         0.00000         0.00000         0.00000         0.00000         0.00000         0.00000         0.00000         0.00000         0.00000         0.00000         0.00000         0.00000         0.00000         0.00000         0.00000         0.00000         0.00000         0.00000         0.00000         0.00000         0.00000         0.00000         0.00000         0.00000         0.00000         0.00000         0.00000         0.00000         0.00000         0.00000         0.00000         0.00000         0.00000         0.00000         0.00000         0.00000         0.00000         0.00000         0.00000         0.00000         0.00000         0.00000         0.00000         0.00000         0.00000         0.00000         0.00000         0.00000         0.00000         0.00000         0.00000         0.00000         0.00000         0.00000         0.00000         0.00000         0.00000         0.00000         0.00000         0.00000         0.00000         0.00000         0.00000         0.00000         0.00000         0.00000         0.00000         0.00000         0.00000         0.00000         0.00000         0.00000         0.00000         0.00000         0.00000         0.00000         0.00000         0.00000         0.00000         0.00000         0.00000         0.00000         0.00000         0.00000         0.00000         0.00000         0.00000         0.00000         0.00000         0.00000    
1
  CONCENTRATION IN LAYER  39 AT END OF TIME STEP  73 IN STRESS PERIOD    1
  ---------------------------------------------------------------------------

 ........................................................................................................................................................................................................................................................................................................................................................................................................................................................................................................................................................................................................................................................................................................................................................................................................................................................................................................................................................................................................................................
   1      0.00000         0.00000         0.00000         0.00000         0.00000         0.00000         0.00000         0.00000         0.00000         0.00000         0.00000         0.00000         0.00000         0.00000         0.00000         0.00000         0.00000         0.00000         0.00000         0.00000         0.00000         0.00000         0.00000         0.00000         0.00000         0.00000         0.00000         0.00000         0.00000         0.00000         0.00000         0.00000         0.00000         0.00000         0.00000         0.00000         0.00000         0.00000         0.00000         0.00000         0.00000         0.00000         0.00000         0.00000         0.00000         0.00000         0.00000         0.00000         0.00000         0.00000         0.00000         0.00000         0.00000         0.00000         0.00000         0.00000         0.00000         0.00000         0.00000         0.00000         0.00000         0.00000         0.00000         0.00000         0.00000         0.00000         0.00000         0.00000         0.00000         0.00000         0.00000         0.00000         0.00000         0.00000         0.00000         0.00000         0.00000         0.00000         0.00000         0.00000         0.00000         0.00000         0.00000         0.00000         0.00000         0.00000         0.00000         0.00000         0.00000         0.00000         0.00000         0.00000         0.00000         0.00000         0.00000         0.00000         0.00000         0.00000         0.00000         0.00000         0.00000         0.00000         0.00000         0.00000         0.00000         0.00000         0.00000         0.00000         0.00000         0.00000         0.00000         0.00000         0.00000         0.00000         0.00000         0.00000         0.00000         0.00000        0.229084        0.229073        1.153567E-04    2.076022E-05    2.081092E-05    1.960834E-05    1.877708E-05    1.844634E-05    1.849546E-05    1.882959E-05    6.033732E-08    1.283052E-08    7.963815E-09    6.225380E-09    5.419084E-09    5.027637E-09    4.868539E-09    4.864882E-09    4.984657E-09    5.783865E-09    6.641014E-09    7.641116E-09    8.805923E-09    1.015998E-08    1.173081E-08    1.354867E-08    1.564669E-08    1.806093E-08    2.083050E-08    2.399744E-08    2.760640E-08    3.170401E-08    3.633805E-08    4.155648E-08    4.740613E-08    5.393098E-08    6.116956E-08    6.915123E-08    7.789112E-08    8.738313E-08    9.759118E-08    1.084382E-07    1.197935E-07    1.314448E-07    1.430987E-07    1.543618E-07    1.647326E-07    1.736101E-07    1.803218E-07    1.841643E-07    1.844274E-07    1.801594E-07    1.648366E-07    1.518563E-07    1.386664E-07    1.246910E-07    1.104005E-07    9.632160E-08    8.289279E-08    7.043042E-08    5.913116E-08    4.908957E-08    4.032051E-08    3.278125E-08    2.639064E-08    2.104415E-08    1.662454E-08    1.301402E-08    1.009750E-08    7.766978E-09    5.924131E-09    4.481621E-09    3.363518E-09    2.505060E-09    1.851972E-09    1.359494E-09    9.912688E-10    7.181739E-10    5.171933E-10    3.703637E-10    2.638314E-10    1.870309E-10    1.319893E-10    9.495506E-11    7.287563E-11    5.642083E-11    4.418384E-11    3.515426E-11    2.856842E-11    2.394723E-11    2.105075E-11    2.004268E-11    2.238986E-11    4.102774E-11    1.947106E-08    1.387811E-08    9.904928E-09    7.093204E-09    5.101636E-09    3.688484E-09    2.683096E-09    1.965547E-09    1.451630E-09    1.082160E-09    8.154771E-10    6.221977E-10    4.814761E-10    3.783290E-10    3.023043E-10    2.461260E-10    2.047097E-10    1.744883E-10    1.523426E-10    1.363780E-10    1.255855E-10    1.197078E-10    1.181843E-10    1.269038E-10    1.996682E-10    5.477560E-10    2.339851E-06    2.575522E-06    2.575522E-06     0.00000         0.00000         0.00000         0.00000         0.00000         0.00000         0.00000         0.00000         0.00000         0.00000         0.00000         0.00000         0.00000         0.00000         0.00000         0.00000         0.00000         0.00000         0.00000         0.00000         0.00000         0.00000         0.00000         0.00000         0.00000         0.00000         0.00000         0.00000         0.00000         0.00000         0.00000         0.00000         0.00000         0.00000         0.00000         0.00000         0.00000         0.00000         0.00000         0.00000         0.00000         0.00000         0.00000         0.00000         0.00000         0.00000         0.00000         0.00000         0.00000         0.00000         0.00000         0.00000         0.00000         0.00000         0.00000         0.00000         0.00000         0.00000         0.00000         0.00000         0.00000         0.00000         0.00000         0.00000         0.00000         0.00000         0.00000         0.00000         0.00000         0.00000         0.00000         0.00000         0.00000         0.00000         0.00000         0.00000         0.00000         0.00000         0.00000         0.00000         0.00000         0.00000         0.00000         0.00000         0.00000         0.00000         0.00000         0.00000         0.00000         0.00000         0.00000         0.00000         0.00000         0.00000         0.00000         0.00000         0.00000         0.00000         0.00000         0.00000         0.00000         0.00000         0.00000         0.00000         0.00000         0.00000         0.00000         0.00000         0.00000         0.00000         0.00000         0.00000         0.00000         0.00000         0.00000         0.00000         0.00000         0.00000         0.00000         0.00000         0.00000         0.00000         0.00000         0.00000         0.00000         0.00000         0.00000         0.00000         0.00000         0.00000         0.00000         0.00000         0.00000         0.00000         0.00000         0.00000         0.00000         0.00000         0.00000         0.00000         0.00000         0.00000         0.00000         0.00000         0.00000         0.00000         0.00000         0.00000         0.00000         0.00000         0.00000         0.00000         0.00000         0.00000         0.00000         0.00000         0.00000         0.00000         0.00000    
1
  CONCENTRATION IN LAYER  40 AT END OF TIME STEP  73 IN STRESS PERIOD    1
  ---------------------------------------------------------------------------

 ........................................................................................................................................................................................................................................................................................................................................................................................................................................................................................................................................................................................................................................................................................................................................................................................................................................................................................................................................................................................................................................
   1      0.00000         0.00000         0.00000         0.00000         0.00000         0.00000         0.00000         0.00000         0.00000         0.00000         0.00000         0.00000         0.00000         0.00000         0.00000         0.00000         0.00000         0.00000         0.00000         0.00000         0.00000         0.00000         0.00000         0.00000         0.00000         0.00000         0.00000         0.00000         0.00000         0.00000         0.00000         0.00000         0.00000         0.00000         0.00000         0.00000         0.00000         0.00000         0.00000         0.00000         0.00000         0.00000         0.00000         0.00000         0.00000         0.00000         0.00000         0.00000         0.00000         0.00000         0.00000         0.00000         0.00000         0.00000         0.00000         0.00000         0.00000         0.00000         0.00000         0.00000         0.00000         0.00000         0.00000         0.00000         0.00000         0.00000         0.00000         0.00000         0.00000         0.00000         0.00000         0.00000         0.00000         0.00000         0.00000         0.00000         0.00000         0.00000         0.00000         0.00000         0.00000         0.00000         0.00000         0.00000         0.00000         0.00000         0.00000         0.00000         0.00000         0.00000         0.00000         0.00000         0.00000         0.00000         0.00000         0.00000         0.00000         0.00000         0.00000         0.00000         0.00000         0.00000         0.00000         0.00000         0.00000         0.00000         0.00000         0.00000         0.00000         0.00000         0.00000         0.00000         0.00000         0.00000         0.00000         0.00000         0.00000         0.00000        0.229084        0.229072        1.192222E-04    2.076022E-05    2.081092E-05    1.960834E-05    1.877708E-05    1.844634E-05    1.849546E-05    1.882959E-05    6.033732E-08    1.283052E-08    7.963815E-09    6.225380E-09    5.419084E-09    5.027637E-09    4.868539E-09    4.864882E-09    4.984657E-09    5.783865E-09    6.641014E-09    7.641116E-09    8.805923E-09    1.015998E-08    1.173081E-08    1.354867E-08    1.564669E-08    1.806093E-08    2.083050E-08    2.399744E-08    2.760640E-08    3.170401E-08    3.633805E-08    4.155648E-08    4.740613E-08    5.393098E-08    6.116956E-08    6.915123E-08    7.789112E-08    8.738313E-08    9.759118E-08    1.084382E-07    1.197935E-07    1.314448E-07    1.430987E-07    1.543618E-07    1.647326E-07    1.736101E-07    1.803218E-07    1.841643E-07    1.844274E-07    1.801594E-07    1.648366E-07    1.518563E-07    1.386664E-07    1.246910E-07    1.104005E-07    9.632160E-08    8.289279E-08    7.043042E-08    5.913116E-08    4.908957E-08    4.032051E-08    3.278125E-08    2.639064E-08    2.104415E-08    1.662454E-08    1.301402E-08    1.009750E-08    7.766978E-09    5.924131E-09    4.481621E-09    3.363518E-09    2.505060E-09    1.851972E-09    1.359494E-09    9.912688E-10    7.181739E-10    5.171933E-10    3.703637E-10    2.638314E-10    1.870309E-10    1.319893E-10    9.495506E-11    7.287563E-11    5.642083E-11    4.418384E-11    3.515426E-11    2.856842E-11    2.394723E-11    2.105075E-11    2.004268E-11    2.238986E-11    4.102774E-11    1.947106E-08    1.387811E-08    9.904928E-09    7.093204E-09    5.101636E-09    3.688484E-09    2.683096E-09    1.965547E-09    1.451630E-09    1.082160E-09    8.154771E-10    6.221977E-10    4.814761E-10    3.783290E-10    3.023043E-10    2.461260E-10    2.047097E-10    1.744883E-10    1.523426E-10    1.363780E-10    1.255855E-10    1.197078E-10    1.181843E-10    1.269038E-10    1.996682E-10    5.477560E-10    2.339851E-06    2.575522E-06    2.575522E-06     0.00000         0.00000         0.00000         0.00000         0.00000         0.00000         0.00000         0.00000         0.00000         0.00000         0.00000         0.00000         0.00000         0.00000         0.00000         0.00000         0.00000         0.00000         0.00000         0.00000         0.00000         0.00000         0.00000         0.00000         0.00000         0.00000         0.00000         0.00000         0.00000         0.00000         0.00000         0.00000         0.00000         0.00000         0.00000         0.00000         0.00000         0.00000         0.00000         0.00000         0.00000         0.00000         0.00000         0.00000         0.00000         0.00000         0.00000         0.00000         0.00000         0.00000         0.00000         0.00000         0.00000         0.00000         0.00000         0.00000         0.00000         0.00000         0.00000         0.00000         0.00000         0.00000         0.00000         0.00000         0.00000         0.00000         0.00000         0.00000         0.00000         0.00000         0.00000         0.00000         0.00000         0.00000         0.00000         0.00000         0.00000         0.00000         0.00000         0.00000         0.00000         0.00000         0.00000         0.00000         0.00000         0.00000         0.00000         0.00000         0.00000         0.00000         0.00000         0.00000         0.00000         0.00000         0.00000         0.00000         0.00000         0.00000         0.00000         0.00000         0.00000         0.00000         0.00000         0.00000         0.00000         0.00000         0.00000         0.00000         0.00000         0.00000         0.00000         0.00000         0.00000         0.00000         0.00000         0.00000         0.00000         0.00000         0.00000         0.00000         0.00000         0.00000         0.00000         0.00000         0.00000         0.00000         0.00000         0.00000         0.00000         0.00000         0.00000         0.00000         0.00000         0.00000         0.00000         0.00000         0.00000         0.00000         0.00000         0.00000         0.00000         0.00000         0.00000         0.00000         0.00000         0.00000         0.00000         0.00000         0.00000         0.00000         0.00000         0.00000         0.00000         0.00000         0.00000         0.00000         0.00000         0.00000         0.00000    
1
  CONCENTRATION IN LAYER  41 AT END OF TIME STEP  73 IN STRESS PERIOD    1
  ---------------------------------------------------------------------------

 ........................................................................................................................................................................................................................................................................................................................................................................................................................................................................................................................................................................................................................................................................................................................................................................................................................................................................................................................................................................................................................................
   1      0.00000         0.00000         0.00000         0.00000         0.00000         0.00000         0.00000         0.00000         0.00000         0.00000         0.00000         0.00000         0.00000         0.00000         0.00000         0.00000         0.00000         0.00000         0.00000         0.00000         0.00000         0.00000         0.00000         0.00000         0.00000         0.00000         0.00000         0.00000         0.00000         0.00000         0.00000         0.00000         0.00000         0.00000         0.00000         0.00000         0.00000         0.00000         0.00000         0.00000         0.00000         0.00000         0.00000         0.00000         0.00000         0.00000         0.00000         0.00000         0.00000         0.00000         0.00000         0.00000         0.00000         0.00000         0.00000         0.00000         0.00000         0.00000         0.00000         0.00000         0.00000         0.00000         0.00000         0.00000         0.00000         0.00000         0.00000         0.00000         0.00000         0.00000         0.00000         0.00000         0.00000         0.00000         0.00000         0.00000         0.00000         0.00000         0.00000         0.00000         0.00000         0.00000         0.00000         0.00000         0.00000         0.00000         0.00000         0.00000         0.00000         0.00000         0.00000         0.00000         0.00000         0.00000         0.00000         0.00000         0.00000         0.00000         0.00000         0.00000         0.00000         0.00000         0.00000         0.00000         0.00000         0.00000         0.00000         0.00000         0.00000         0.00000         0.00000         0.00000         0.00000         0.00000         0.00000         0.00000         0.00000         0.00000        0.229084        0.229072        0.193167        2.076022E-05    2.081092E-05    1.960834E-05    1.877708E-05    1.844634E-05    1.849546E-05    1.882959E-05    6.033732E-08    1.283052E-08    7.963815E-09    6.225380E-09    5.419084E-09    5.027637E-09    4.868539E-09    4.864882E-09    4.984657E-09    5.783865E-09    6.641014E-09    7.641116E-09    8.805923E-09    1.015998E-08    1.173081E-08    1.354867E-08    1.564669E-08    1.806093E-08    2.083050E-08    2.399744E-08    2.760640E-08    3.170401E-08    3.633805E-08    4.155648E-08    4.740613E-08    5.393098E-08    6.116956E-08    6.915123E-08    7.789112E-08    8.738313E-08    9.759118E-08    1.084382E-07    1.197935E-07    1.314448E-07    1.430987E-07    1.543618E-07    1.647326E-07    1.736101E-07    1.803218E-07    1.841643E-07    1.844274E-07    1.801594E-07    1.648366E-07    1.518563E-07    1.386664E-07    1.246910E-07    1.104005E-07    9.632160E-08    8.289279E-08    7.043042E-08    5.913116E-08    4.908957E-08    4.032051E-08    3.278125E-08    2.639064E-08    2.104415E-08    1.662454E-08    1.301402E-08    1.009750E-08    7.766978E-09    5.924131E-09    4.481621E-09    3.363518E-09    2.505060E-09    1.851972E-09    1.359494E-09    9.912688E-10    7.181739E-10    5.171933E-10    3.703637E-10    2.638314E-10    1.870309E-10    1.319893E-10    9.495506E-11    7.287563E-11    5.642083E-11    4.418384E-11    3.515426E-11    2.856842E-11    2.394723E-11    2.105075E-11    2.004268E-11    2.238986E-11    4.102774E-11    1.947106E-08    1.387811E-08    9.904928E-09    7.093204E-09    5.101636E-09    3.688484E-09    2.683096E-09    1.965547E-09    1.451630E-09    1.082160E-09    8.154771E-10    6.221977E-10    4.814761E-10    3.783290E-10    3.023043E-10    2.461260E-10    2.047097E-10    1.744883E-10    1.523426E-10    1.363780E-10    1.255855E-10    1.197078E-10    1.181843E-10    1.269038E-10    1.996682E-10    5.477560E-10    2.339851E-06    2.575522E-06    2.575522E-06     0.00000         0.00000         0.00000         0.00000         0.00000         0.00000         0.00000         0.00000         0.00000         0.00000         0.00000         0.00000         0.00000         0.00000         0.00000         0.00000         0.00000         0.00000         0.00000         0.00000         0.00000         0.00000         0.00000         0.00000         0.00000         0.00000         0.00000         0.00000         0.00000         0.00000         0.00000         0.00000         0.00000         0.00000         0.00000         0.00000         0.00000         0.00000         0.00000         0.00000         0.00000         0.00000         0.00000         0.00000         0.00000         0.00000         0.00000         0.00000         0.00000         0.00000         0.00000         0.00000         0.00000         0.00000         0.00000         0.00000         0.00000         0.00000         0.00000         0.00000         0.00000         0.00000         0.00000         0.00000         0.00000         0.00000         0.00000         0.00000         0.00000         0.00000         0.00000         0.00000         0.00000         0.00000         0.00000         0.00000         0.00000         0.00000         0.00000         0.00000         0.00000         0.00000         0.00000         0.00000         0.00000         0.00000         0.00000         0.00000         0.00000         0.00000         0.00000         0.00000         0.00000         0.00000         0.00000         0.00000         0.00000         0.00000         0.00000         0.00000         0.00000         0.00000         0.00000         0.00000         0.00000         0.00000         0.00000         0.00000         0.00000         0.00000         0.00000         0.00000         0.00000         0.00000         0.00000         0.00000         0.00000         0.00000         0.00000         0.00000         0.00000         0.00000         0.00000         0.00000         0.00000         0.00000         0.00000         0.00000         0.00000         0.00000         0.00000         0.00000         0.00000         0.00000         0.00000         0.00000         0.00000         0.00000         0.00000         0.00000         0.00000         0.00000         0.00000         0.00000         0.00000         0.00000         0.00000         0.00000         0.00000         0.00000         0.00000         0.00000         0.00000         0.00000         0.00000         0.00000         0.00000         0.00000         0.00000    
1
  CONCENTRATION IN LAYER  42 AT END OF TIME STEP  73 IN STRESS PERIOD    1
  ---------------------------------------------------------------------------

 ........................................................................................................................................................................................................................................................................................................................................................................................................................................................................................................................................................................................................................................................................................................................................................................................................................................................................................................................................................................................................................................
   1      0.00000         0.00000         0.00000         0.00000         0.00000         0.00000         0.00000         0.00000         0.00000         0.00000         0.00000         0.00000         0.00000         0.00000         0.00000         0.00000         0.00000         0.00000         0.00000         0.00000         0.00000         0.00000         0.00000         0.00000         0.00000         0.00000         0.00000         0.00000         0.00000         0.00000         0.00000         0.00000         0.00000         0.00000         0.00000         0.00000         0.00000         0.00000         0.00000         0.00000         0.00000         0.00000         0.00000         0.00000         0.00000         0.00000         0.00000         0.00000         0.00000         0.00000         0.00000         0.00000         0.00000         0.00000         0.00000         0.00000         0.00000         0.00000         0.00000         0.00000         0.00000         0.00000         0.00000         0.00000         0.00000         0.00000         0.00000         0.00000         0.00000         0.00000         0.00000         0.00000         0.00000         0.00000         0.00000         0.00000         0.00000         0.00000         0.00000         0.00000         0.00000         0.00000         0.00000         0.00000         0.00000         0.00000         0.00000         0.00000         0.00000         0.00000         0.00000         0.00000         0.00000         0.00000         0.00000         0.00000         0.00000         0.00000         0.00000         0.00000         0.00000         0.00000         0.00000         0.00000         0.00000         0.00000         0.00000         0.00000         0.00000         0.00000         0.00000         0.00000         0.00000         0.00000         0.00000         0.00000         0.00000         0.00000        0.229084        0.229072        0.224849        2.076022E-05    2.081092E-05    1.960834E-05    1.877708E-05    1.844634E-05    1.849546E-05    1.882959E-05    6.033732E-08    1.283052E-08    7.963815E-09    6.225380E-09    5.419084E-09    5.027637E-09    4.868539E-09    4.864882E-09    4.984657E-09    5.783865E-09    6.641014E-09    7.641116E-09    8.805923E-09    1.015998E-08    1.173081E-08    1.354867E-08    1.564669E-08    1.806093E-08    2.083050E-08    2.399744E-08    2.760640E-08    3.170401E-08    3.633805E-08    4.155648E-08    4.740613E-08    5.393098E-08    6.116956E-08    6.915123E-08    7.789112E-08    8.738313E-08    9.759118E-08    1.084382E-07    1.197935E-07    1.314448E-07    1.430987E-07    1.543618E-07    1.647326E-07    1.736101E-07    1.803218E-07    1.841643E-07    1.844274E-07    1.801594E-07    1.648366E-07    1.518563E-07    1.386664E-07    1.246910E-07    1.104005E-07    9.632160E-08    8.289279E-08    7.043042E-08    5.913116E-08    4.908957E-08    4.032051E-08    3.278125E-08    2.639064E-08    2.104415E-08    1.662454E-08    1.301402E-08    1.009750E-08    7.766978E-09    5.924131E-09    4.481621E-09    3.363518E-09    2.505060E-09    1.851972E-09    1.359494E-09    9.912688E-10    7.181739E-10    5.171933E-10    3.703637E-10    2.638314E-10    1.870309E-10    1.319893E-10    9.495506E-11    7.287563E-11    5.642083E-11    4.418384E-11    3.515426E-11    2.856842E-11    2.394723E-11    2.105075E-11    2.004268E-11    2.238986E-11    4.102774E-11    1.947106E-08    1.387811E-08    9.904928E-09    7.093204E-09    5.101636E-09    3.688484E-09    2.683096E-09    1.965547E-09    1.451630E-09    1.082160E-09    8.154771E-10    6.221977E-10    4.814761E-10    3.783290E-10    3.023043E-10    2.461260E-10    2.047097E-10    1.744883E-10    1.523426E-10    1.363780E-10    1.255855E-10    1.197078E-10    1.181843E-10    1.269038E-10    1.996682E-10    5.477560E-10    2.339851E-06    2.575522E-06    2.575522E-06     0.00000         0.00000         0.00000         0.00000         0.00000         0.00000         0.00000         0.00000         0.00000         0.00000         0.00000         0.00000         0.00000         0.00000         0.00000         0.00000         0.00000         0.00000         0.00000         0.00000         0.00000         0.00000         0.00000         0.00000         0.00000         0.00000         0.00000         0.00000         0.00000         0.00000         0.00000         0.00000         0.00000         0.00000         0.00000         0.00000         0.00000         0.00000         0.00000         0.00000         0.00000         0.00000         0.00000         0.00000         0.00000         0.00000         0.00000         0.00000         0.00000         0.00000         0.00000         0.00000         0.00000         0.00000         0.00000         0.00000         0.00000         0.00000         0.00000         0.00000         0.00000         0.00000         0.00000         0.00000         0.00000         0.00000         0.00000         0.00000         0.00000         0.00000         0.00000         0.00000         0.00000         0.00000         0.00000         0.00000         0.00000         0.00000         0.00000         0.00000         0.00000         0.00000         0.00000         0.00000         0.00000         0.00000         0.00000         0.00000         0.00000         0.00000         0.00000         0.00000         0.00000         0.00000         0.00000         0.00000         0.00000         0.00000         0.00000         0.00000         0.00000         0.00000         0.00000         0.00000         0.00000         0.00000         0.00000         0.00000         0.00000         0.00000         0.00000         0.00000         0.00000         0.00000         0.00000         0.00000         0.00000         0.00000         0.00000         0.00000         0.00000         0.00000         0.00000         0.00000         0.00000         0.00000         0.00000         0.00000         0.00000         0.00000         0.00000         0.00000         0.00000         0.00000         0.00000         0.00000         0.00000         0.00000         0.00000         0.00000         0.00000         0.00000         0.00000         0.00000         0.00000         0.00000         0.00000         0.00000         0.00000         0.00000         0.00000         0.00000         0.00000         0.00000         0.00000         0.00000         0.00000         0.00000         0.00000    
1
  CONCENTRATION IN LAYER  43 AT END OF TIME STEP  73 IN STRESS PERIOD    1
  ---------------------------------------------------------------------------

 ........................................................................................................................................................................................................................................................................................................................................................................................................................................................................................................................................................................................................................................................................................................................................................................................................................................................................................................................................................................................................................................
   1      0.00000         0.00000         0.00000         0.00000         0.00000         0.00000         0.00000         0.00000         0.00000         0.00000         0.00000         0.00000         0.00000         0.00000         0.00000         0.00000         0.00000         0.00000         0.00000         0.00000         0.00000         0.00000         0.00000         0.00000         0.00000         0.00000         0.00000         0.00000         0.00000         0.00000         0.00000         0.00000         0.00000         0.00000         0.00000         0.00000         0.00000         0.00000         0.00000         0.00000         0.00000         0.00000         0.00000         0.00000         0.00000         0.00000         0.00000         0.00000         0.00000         0.00000         0.00000         0.00000         0.00000         0.00000         0.00000         0.00000         0.00000         0.00000         0.00000         0.00000         0.00000         0.00000         0.00000         0.00000         0.00000         0.00000         0.00000         0.00000         0.00000         0.00000         0.00000         0.00000         0.00000         0.00000         0.00000         0.00000         0.00000         0.00000         0.00000         0.00000         0.00000         0.00000         0.00000         0.00000         0.00000         0.00000         0.00000         0.00000         0.00000         0.00000         0.00000         0.00000         0.00000         0.00000         0.00000         0.00000         0.00000         0.00000         0.00000         0.00000         0.00000         0.00000         0.00000         0.00000         0.00000         0.00000         0.00000         0.00000         0.00000         0.00000         0.00000         0.00000         0.00000         0.00000         0.00000         0.00000         0.00000         0.00000        0.229084        0.229071        0.228568        2.076022E-05    2.081092E-05    1.960834E-05    1.877708E-05    1.844634E-05    1.849546E-05    1.882959E-05    6.033732E-08    1.283052E-08    7.963815E-09    6.225380E-09    5.419084E-09    5.027637E-09    4.868539E-09    4.864882E-09    4.984657E-09    5.783865E-09    6.641014E-09    7.641116E-09    8.805923E-09    1.015998E-08    1.173081E-08    1.354867E-08    1.564669E-08    1.806093E-08    2.083050E-08    2.399744E-08    2.760640E-08    3.170401E-08    3.633805E-08    4.155648E-08    4.740613E-08    5.393098E-08    6.116956E-08    6.915123E-08    7.789112E-08    8.738313E-08    9.759118E-08    1.084382E-07    1.197935E-07    1.314448E-07    1.430987E-07    1.543618E-07    1.647326E-07    1.736101E-07    1.803218E-07    1.841643E-07    1.844274E-07    1.801594E-07    1.648366E-07    1.518563E-07    1.386664E-07    1.246910E-07    1.104005E-07    9.632160E-08    8.289279E-08    7.043042E-08    5.913116E-08    4.908957E-08    4.032051E-08    3.278125E-08    2.639064E-08    2.104415E-08    1.662454E-08    1.301402E-08    1.009750E-08    7.766978E-09    5.924131E-09    4.481621E-09    3.363518E-09    2.505060E-09    1.851972E-09    1.359494E-09    9.912688E-10    7.181739E-10    5.171933E-10    3.703637E-10    2.638314E-10    1.870309E-10    1.319893E-10    9.495506E-11    7.287563E-11    5.642083E-11    4.418384E-11    3.515426E-11    2.856842E-11    2.394723E-11    2.105075E-11    2.004268E-11    2.238986E-11    4.102774E-11    1.947106E-08    1.387811E-08    9.904928E-09    7.093204E-09    5.101636E-09    3.688484E-09    2.683096E-09    1.965547E-09    1.451630E-09    1.082160E-09    8.154771E-10    6.221977E-10    4.814761E-10    3.783290E-10    3.023043E-10    2.461260E-10    2.047097E-10    1.744883E-10    1.523426E-10    1.363780E-10    1.255855E-10    1.197078E-10    1.181843E-10    1.269038E-10    1.996682E-10    5.477560E-10    2.339851E-06    2.575522E-06    2.575522E-06     0.00000         0.00000         0.00000         0.00000         0.00000         0.00000         0.00000         0.00000         0.00000         0.00000         0.00000         0.00000         0.00000         0.00000         0.00000         0.00000         0.00000         0.00000         0.00000         0.00000         0.00000         0.00000         0.00000         0.00000         0.00000         0.00000         0.00000         0.00000         0.00000         0.00000         0.00000         0.00000         0.00000         0.00000         0.00000         0.00000         0.00000         0.00000         0.00000         0.00000         0.00000         0.00000         0.00000         0.00000         0.00000         0.00000         0.00000         0.00000         0.00000         0.00000         0.00000         0.00000         0.00000         0.00000         0.00000         0.00000         0.00000         0.00000         0.00000         0.00000         0.00000         0.00000         0.00000         0.00000         0.00000         0.00000         0.00000         0.00000         0.00000         0.00000         0.00000         0.00000         0.00000         0.00000         0.00000         0.00000         0.00000         0.00000         0.00000         0.00000         0.00000         0.00000         0.00000         0.00000         0.00000         0.00000         0.00000         0.00000         0.00000         0.00000         0.00000         0.00000         0.00000         0.00000         0.00000         0.00000         0.00000         0.00000         0.00000         0.00000         0.00000         0.00000         0.00000         0.00000         0.00000         0.00000         0.00000         0.00000         0.00000         0.00000         0.00000         0.00000         0.00000         0.00000         0.00000         0.00000         0.00000         0.00000         0.00000         0.00000         0.00000         0.00000         0.00000         0.00000         0.00000         0.00000         0.00000         0.00000         0.00000         0.00000         0.00000         0.00000         0.00000         0.00000         0.00000         0.00000         0.00000         0.00000         0.00000         0.00000         0.00000         0.00000         0.00000         0.00000         0.00000         0.00000         0.00000         0.00000         0.00000         0.00000         0.00000         0.00000         0.00000         0.00000         0.00000         0.00000         0.00000         0.00000         0.00000    
1
  CONCENTRATION IN LAYER  44 AT END OF TIME STEP  73 IN STRESS PERIOD    1
  ---------------------------------------------------------------------------

 ........................................................................................................................................................................................................................................................................................................................................................................................................................................................................................................................................................................................................................................................................................................................................................................................................................................................................................................................................................................................................................................
   1      0.00000         0.00000         0.00000         0.00000         0.00000         0.00000         0.00000         0.00000         0.00000         0.00000         0.00000         0.00000         0.00000         0.00000         0.00000         0.00000         0.00000         0.00000         0.00000         0.00000         0.00000         0.00000         0.00000         0.00000         0.00000         0.00000         0.00000         0.00000         0.00000         0.00000         0.00000         0.00000         0.00000         0.00000         0.00000         0.00000         0.00000         0.00000         0.00000         0.00000         0.00000         0.00000         0.00000         0.00000         0.00000         0.00000         0.00000         0.00000         0.00000         0.00000         0.00000         0.00000         0.00000         0.00000         0.00000         0.00000         0.00000         0.00000         0.00000         0.00000         0.00000         0.00000         0.00000         0.00000         0.00000         0.00000         0.00000         0.00000         0.00000         0.00000         0.00000         0.00000         0.00000         0.00000         0.00000         0.00000         0.00000         0.00000         0.00000         0.00000         0.00000         0.00000         0.00000         0.00000         0.00000         0.00000         0.00000         0.00000         0.00000         0.00000         0.00000         0.00000         0.00000         0.00000         0.00000         0.00000         0.00000         0.00000         0.00000         0.00000         0.00000         0.00000         0.00000         0.00000         0.00000         0.00000         0.00000         0.00000         0.00000         0.00000         0.00000         0.00000         0.00000         0.00000         0.00000         0.00000         0.00000         0.00000        0.229084        0.229057        0.228984        2.076022E-05    2.081092E-05    1.960834E-05    1.877708E-05    1.844634E-05    1.849546E-05    1.882959E-05    6.033732E-08    1.283052E-08    7.963815E-09    6.225380E-09    5.419084E-09    5.027637E-09    4.868539E-09    4.864882E-09    4.984657E-09    5.783865E-09    6.641014E-09    7.641116E-09    8.805923E-09    1.015998E-08    1.173081E-08    1.354867E-08    1.564669E-08    1.806093E-08    2.083050E-08    2.399744E-08    2.760640E-08    3.170401E-08    3.633805E-08    4.155648E-08    4.740613E-08    5.393098E-08    6.116956E-08    6.915123E-08    7.789112E-08    8.738313E-08    9.759118E-08    1.084382E-07    1.197935E-07    1.314448E-07    1.430987E-07    1.543618E-07    1.647326E-07    1.736101E-07    1.803218E-07    1.841643E-07    1.844274E-07    1.801594E-07    1.648366E-07    1.518563E-07    1.386664E-07    1.246910E-07    1.104005E-07    9.632160E-08    8.289279E-08    7.043042E-08    5.913116E-08    4.908957E-08    4.032051E-08    3.278125E-08    2.639064E-08    2.104415E-08    1.662454E-08    1.301402E-08    1.009750E-08    7.766978E-09    5.924131E-09    4.481621E-09    3.363518E-09    2.505060E-09    1.851972E-09    1.359494E-09    9.912688E-10    7.181739E-10    5.171933E-10    3.703637E-10    2.638314E-10    1.870309E-10    1.319893E-10    9.495506E-11    7.287563E-11    5.642083E-11    4.418384E-11    3.515426E-11    2.856842E-11    2.394723E-11    2.105075E-11    2.004268E-11    2.238986E-11    4.102774E-11    1.947106E-08    1.387811E-08    9.904928E-09    7.093204E-09    5.101636E-09    3.688484E-09    2.683096E-09    1.965547E-09    1.451630E-09    1.082160E-09    8.154771E-10    6.221977E-10    4.814761E-10    3.783290E-10    3.023043E-10    2.461260E-10    2.047097E-10    1.744883E-10    1.523426E-10    1.363780E-10    1.255855E-10    1.197078E-10    1.181843E-10    1.269038E-10    1.996682E-10    5.477560E-10    2.339851E-06    2.575522E-06    2.575522E-06     0.00000         0.00000         0.00000         0.00000         0.00000         0.00000         0.00000         0.00000         0.00000         0.00000         0.00000         0.00000         0.00000         0.00000         0.00000         0.00000         0.00000         0.00000         0.00000         0.00000         0.00000         0.00000         0.00000         0.00000         0.00000         0.00000         0.00000         0.00000         0.00000         0.00000         0.00000         0.00000         0.00000         0.00000         0.00000         0.00000         0.00000         0.00000         0.00000         0.00000         0.00000         0.00000         0.00000         0.00000         0.00000         0.00000         0.00000         0.00000         0.00000         0.00000         0.00000         0.00000         0.00000         0.00000         0.00000         0.00000         0.00000         0.00000         0.00000         0.00000         0.00000         0.00000         0.00000         0.00000         0.00000         0.00000         0.00000         0.00000         0.00000         0.00000         0.00000         0.00000         0.00000         0.00000         0.00000         0.00000         0.00000         0.00000         0.00000         0.00000         0.00000         0.00000         0.00000         0.00000         0.00000         0.00000         0.00000         0.00000         0.00000         0.00000         0.00000         0.00000         0.00000         0.00000         0.00000         0.00000         0.00000         0.00000         0.00000         0.00000         0.00000         0.00000         0.00000         0.00000         0.00000         0.00000         0.00000         0.00000         0.00000         0.00000         0.00000         0.00000         0.00000         0.00000         0.00000         0.00000         0.00000         0.00000         0.00000         0.00000         0.00000         0.00000         0.00000         0.00000         0.00000         0.00000         0.00000         0.00000         0.00000         0.00000         0.00000         0.00000         0.00000         0.00000         0.00000         0.00000         0.00000         0.00000         0.00000         0.00000         0.00000         0.00000         0.00000         0.00000         0.00000         0.00000         0.00000         0.00000         0.00000         0.00000         0.00000         0.00000         0.00000         0.00000         0.00000         0.00000         0.00000         0.00000         0.00000    
1
  CONCENTRATION IN LAYER  45 AT END OF TIME STEP  73 IN STRESS PERIOD    1
  ---------------------------------------------------------------------------

 ........................................................................................................................................................................................................................................................................................................................................................................................................................................................................................................................................................................................................................................................................................................................................................................................................................................................................................................................................................................................................................................
   1      0.00000         0.00000         0.00000         0.00000         0.00000         0.00000         0.00000         0.00000         0.00000         0.00000         0.00000         0.00000         0.00000         0.00000         0.00000         0.00000         0.00000         0.00000         0.00000         0.00000         0.00000         0.00000         0.00000         0.00000         0.00000         0.00000         0.00000         0.00000         0.00000         0.00000         0.00000         0.00000         0.00000         0.00000         0.00000         0.00000         0.00000         0.00000         0.00000         0.00000         0.00000         0.00000         0.00000         0.00000         0.00000         0.00000         0.00000         0.00000         0.00000         0.00000         0.00000         0.00000         0.00000         0.00000         0.00000         0.00000         0.00000         0.00000         0.00000         0.00000         0.00000         0.00000         0.00000         0.00000         0.00000         0.00000         0.00000         0.00000         0.00000         0.00000         0.00000         0.00000         0.00000         0.00000         0.00000         0.00000         0.00000         0.00000         0.00000         0.00000         0.00000         0.00000         0.00000         0.00000         0.00000         0.00000         0.00000         0.00000         0.00000         0.00000         0.00000         0.00000         0.00000         0.00000         0.00000         0.00000         0.00000         0.00000         0.00000         0.00000         0.00000         0.00000         0.00000         0.00000         0.00000         0.00000         0.00000         0.00000         0.00000         0.00000         0.00000         0.00000         0.00000         0.00000         0.00000         0.00000         0.00000         0.00000        0.229070        0.228958        0.228963        2.076022E-05    2.081092E-05    1.960834E-05    1.877708E-05    1.844634E-05    1.849546E-05    1.882959E-05    6.033732E-08    1.283052E-08    7.963815E-09    6.225380E-09    5.419084E-09    5.027637E-09    4.868539E-09    4.864882E-09    4.984657E-09    5.783865E-09    6.641014E-09    7.641116E-09    8.805923E-09    1.015998E-08    1.173081E-08    1.354867E-08    1.564669E-08    1.806093E-08    2.083050E-08    2.399744E-08    2.760640E-08    3.170401E-08    3.633805E-08    4.155648E-08    4.740613E-08    5.393098E-08    6.116956E-08    6.915123E-08    7.789112E-08    8.738313E-08    9.759118E-08    1.084382E-07    1.197935E-07    1.314448E-07    1.430987E-07    1.543618E-07    1.647326E-07    1.736101E-07    1.803218E-07    1.841643E-07    1.844274E-07    1.801594E-07    1.648366E-07    1.518563E-07    1.386664E-07    1.246910E-07    1.104005E-07    9.632160E-08    8.289279E-08    7.043042E-08    5.913116E-08    4.908957E-08    4.032051E-08    3.278125E-08    2.639064E-08    2.104415E-08    1.662454E-08    1.301402E-08    1.009750E-08    7.766978E-09    5.924131E-09    4.481621E-09    3.363518E-09    2.505060E-09    1.851972E-09    1.359494E-09    9.912688E-10    7.181739E-10    5.171933E-10    3.703637E-10    2.638314E-10    1.870309E-10    1.319893E-10    9.495506E-11    7.287563E-11    5.642083E-11    4.418384E-11    3.515426E-11    2.856842E-11    2.394723E-11    2.105075E-11    2.004268E-11    2.238986E-11    4.102774E-11    1.947106E-08    1.387811E-08    9.904928E-09    7.093204E-09    5.101636E-09    3.688484E-09    2.683096E-09    1.965547E-09    1.451630E-09    1.082160E-09    8.154771E-10    6.221977E-10    4.814761E-10    3.783290E-10    3.023043E-10    2.461260E-10    2.047097E-10    1.744883E-10    1.523426E-10    1.363780E-10    1.255855E-10    1.197078E-10    1.181843E-10    1.269038E-10    1.996682E-10    5.477560E-10    2.339851E-06    2.575522E-06    2.575522E-06     0.00000         0.00000         0.00000         0.00000         0.00000         0.00000         0.00000         0.00000         0.00000         0.00000         0.00000         0.00000         0.00000         0.00000         0.00000         0.00000         0.00000         0.00000         0.00000         0.00000         0.00000         0.00000         0.00000         0.00000         0.00000         0.00000         0.00000         0.00000         0.00000         0.00000         0.00000         0.00000         0.00000         0.00000         0.00000         0.00000         0.00000         0.00000         0.00000         0.00000         0.00000         0.00000         0.00000         0.00000         0.00000         0.00000         0.00000         0.00000         0.00000         0.00000         0.00000         0.00000         0.00000         0.00000         0.00000         0.00000         0.00000         0.00000         0.00000         0.00000         0.00000         0.00000         0.00000         0.00000         0.00000         0.00000         0.00000         0.00000         0.00000         0.00000         0.00000         0.00000         0.00000         0.00000         0.00000         0.00000         0.00000         0.00000         0.00000         0.00000         0.00000         0.00000         0.00000         0.00000         0.00000         0.00000         0.00000         0.00000         0.00000         0.00000         0.00000         0.00000         0.00000         0.00000         0.00000         0.00000         0.00000         0.00000         0.00000         0.00000         0.00000         0.00000         0.00000         0.00000         0.00000         0.00000         0.00000         0.00000         0.00000         0.00000         0.00000         0.00000         0.00000         0.00000         0.00000         0.00000         0.00000         0.00000         0.00000         0.00000         0.00000         0.00000         0.00000         0.00000         0.00000         0.00000         0.00000         0.00000         0.00000         0.00000         0.00000         0.00000         0.00000         0.00000         0.00000         0.00000         0.00000         0.00000         0.00000         0.00000         0.00000         0.00000         0.00000         0.00000         0.00000         0.00000         0.00000         0.00000         0.00000         0.00000         0.00000         0.00000         0.00000         0.00000         0.00000         0.00000         0.00000         0.00000         0.00000    
1
  CONCENTRATION IN LAYER  46 AT END OF TIME STEP  73 IN STRESS PERIOD    1
  ---------------------------------------------------------------------------

 ........................................................................................................................................................................................................................................................................................................................................................................................................................................................................................................................................................................................................................................................................................................................................................................................................................................................................................................................................................................................................................................
   1      0.00000         0.00000         0.00000         0.00000         0.00000         0.00000         0.00000         0.00000         0.00000         0.00000         0.00000         0.00000         0.00000         0.00000         0.00000         0.00000         0.00000         0.00000         0.00000         0.00000         0.00000         0.00000         0.00000         0.00000         0.00000         0.00000         0.00000         0.00000         0.00000         0.00000         0.00000         0.00000         0.00000         0.00000         0.00000         0.00000         0.00000         0.00000         0.00000         0.00000         0.00000         0.00000         0.00000         0.00000         0.00000         0.00000         0.00000         0.00000         0.00000         0.00000         0.00000         0.00000         0.00000         0.00000         0.00000         0.00000         0.00000         0.00000         0.00000         0.00000         0.00000         0.00000         0.00000         0.00000         0.00000         0.00000         0.00000         0.00000         0.00000         0.00000         0.00000         0.00000         0.00000         0.00000         0.00000         0.00000         0.00000         0.00000         0.00000         0.00000         0.00000         0.00000         0.00000         0.00000         0.00000         0.00000         0.00000         0.00000         0.00000         0.00000         0.00000         0.00000         0.00000         0.00000         0.00000         0.00000         0.00000         0.00000         0.00000         0.00000         0.00000         0.00000         0.00000         0.00000         0.00000         0.00000         0.00000         0.00000         0.00000         0.00000         0.00000         0.00000         0.00000         0.00000         0.00000         0.00000         0.00000         0.00000        0.228922        0.228415        0.228586        2.076022E-05    2.081092E-05    1.960834E-05    1.877708E-05    1.844634E-05    1.849546E-05    1.882959E-05    6.033732E-08    1.283052E-08    7.963815E-09    6.225380E-09    5.419084E-09    5.027637E-09    4.868539E-09    4.864882E-09    4.984657E-09    5.783865E-09    6.641014E-09    7.641116E-09    8.805923E-09    1.015998E-08    1.173081E-08    1.354867E-08    1.564669E-08    1.806093E-08    2.083050E-08    2.399744E-08    2.760640E-08    3.170401E-08    3.633805E-08    4.155648E-08    4.740613E-08    5.393098E-08    6.116956E-08    6.915123E-08    7.789112E-08    8.738313E-08    9.759118E-08    1.084382E-07    1.197935E-07    1.314448E-07    1.430987E-07    1.543618E-07    1.647326E-07    1.736101E-07    1.803218E-07    1.841643E-07    1.844274E-07    1.801594E-07    1.648366E-07    1.518563E-07    1.386664E-07    1.246910E-07    1.104005E-07    9.632160E-08    8.289279E-08    7.043042E-08    5.913116E-08    4.908957E-08    4.032051E-08    3.278125E-08    2.639064E-08    2.104415E-08    1.662454E-08    1.301402E-08    1.009750E-08    7.766978E-09    5.924131E-09    4.481621E-09    3.363518E-09    2.505060E-09    1.851972E-09    1.359494E-09    9.912688E-10    7.181739E-10    5.171933E-10    3.703637E-10    2.638314E-10    1.870309E-10    1.319893E-10    9.495506E-11    7.287563E-11    5.642083E-11    4.418384E-11    3.515426E-11    2.856842E-11    2.394723E-11    2.105075E-11    2.004268E-11    2.238986E-11    4.102774E-11    1.947106E-08    1.387811E-08    9.904928E-09    7.093204E-09    5.101636E-09    3.688484E-09    2.683096E-09    1.965547E-09    1.451630E-09    1.082160E-09    8.154771E-10    6.221977E-10    4.814761E-10    3.783290E-10    3.023043E-10    2.461260E-10    2.047097E-10    1.744883E-10    1.523426E-10    1.363780E-10    1.255855E-10    1.197078E-10    1.181843E-10    1.269038E-10    1.996682E-10    5.477560E-10    2.339851E-06    2.575522E-06    2.575522E-06     0.00000         0.00000         0.00000         0.00000         0.00000         0.00000         0.00000         0.00000         0.00000         0.00000         0.00000         0.00000         0.00000         0.00000         0.00000         0.00000         0.00000         0.00000         0.00000         0.00000         0.00000         0.00000         0.00000         0.00000         0.00000         0.00000         0.00000         0.00000         0.00000         0.00000         0.00000         0.00000         0.00000         0.00000         0.00000         0.00000         0.00000         0.00000         0.00000         0.00000         0.00000         0.00000         0.00000         0.00000         0.00000         0.00000         0.00000         0.00000         0.00000         0.00000         0.00000         0.00000         0.00000         0.00000         0.00000         0.00000         0.00000         0.00000         0.00000         0.00000         0.00000         0.00000         0.00000         0.00000         0.00000         0.00000         0.00000         0.00000         0.00000         0.00000         0.00000         0.00000         0.00000         0.00000         0.00000         0.00000         0.00000         0.00000         0.00000         0.00000         0.00000         0.00000         0.00000         0.00000         0.00000         0.00000         0.00000         0.00000         0.00000         0.00000         0.00000         0.00000         0.00000         0.00000         0.00000         0.00000         0.00000         0.00000         0.00000         0.00000         0.00000         0.00000         0.00000         0.00000         0.00000         0.00000         0.00000         0.00000         0.00000         0.00000         0.00000         0.00000         0.00000         0.00000         0.00000         0.00000         0.00000         0.00000         0.00000         0.00000         0.00000         0.00000         0.00000         0.00000         0.00000         0.00000         0.00000         0.00000         0.00000         0.00000         0.00000         0.00000         0.00000         0.00000         0.00000         0.00000         0.00000         0.00000         0.00000         0.00000         0.00000         0.00000         0.00000         0.00000         0.00000         0.00000         0.00000         0.00000         0.00000         0.00000         0.00000         0.00000         0.00000         0.00000         0.00000         0.00000         0.00000         0.00000         0.00000    
1
  CONCENTRATION IN LAYER  47 AT END OF TIME STEP  73 IN STRESS PERIOD    1
  ---------------------------------------------------------------------------

 ........................................................................................................................................................................................................................................................................................................................................................................................................................................................................................................................................................................................................................................................................................................................................................................................................................................................................................................................................................................................................................................
   1      0.00000         0.00000         0.00000         0.00000         0.00000         0.00000         0.00000         0.00000         0.00000         0.00000         0.00000         0.00000         0.00000         0.00000         0.00000         0.00000         0.00000         0.00000         0.00000         0.00000         0.00000         0.00000         0.00000         0.00000         0.00000         0.00000         0.00000         0.00000         0.00000         0.00000         0.00000         0.00000         0.00000         0.00000         0.00000         0.00000         0.00000         0.00000         0.00000         0.00000         0.00000         0.00000         0.00000         0.00000         0.00000         0.00000         0.00000         0.00000         0.00000         0.00000         0.00000         0.00000         0.00000         0.00000         0.00000         0.00000         0.00000         0.00000         0.00000         0.00000         0.00000         0.00000         0.00000         0.00000         0.00000         0.00000         0.00000         0.00000         0.00000         0.00000         0.00000         0.00000         0.00000         0.00000         0.00000         0.00000         0.00000         0.00000         0.00000         0.00000         0.00000         0.00000         0.00000         0.00000         0.00000         0.00000         0.00000         0.00000         0.00000         0.00000         0.00000         0.00000         0.00000         0.00000         0.00000         0.00000         0.00000         0.00000         0.00000         0.00000         0.00000         0.00000         0.00000         0.00000         0.00000         0.00000         0.00000         0.00000         0.00000         0.00000         0.00000         0.00000         0.00000         0.00000         0.00000         0.00000         0.00000        0.227261        0.227261        0.226079        0.227346        2.076022E-05    2.081092E-05    1.960834E-05    1.877708E-05    1.844634E-05    1.849546E-05    1.882959E-05    6.033732E-08    1.283052E-08    7.963815E-09    6.225380E-09    5.419084E-09    5.027637E-09    4.868539E-09    4.864882E-09    4.984657E-09    5.783865E-09    6.641014E-09    7.641116E-09    8.805923E-09    1.015998E-08    1.173081E-08    1.354867E-08    1.564669E-08    1.806093E-08    2.083050E-08    2.399744E-08    2.760640E-08    3.170401E-08    3.633805E-08    4.155648E-08    4.740613E-08    5.393098E-08    6.116956E-08    6.915123E-08    7.789112E-08    8.738313E-08    9.759118E-08    1.084382E-07    1.197935E-07    1.314448E-07    1.430987E-07    1.543618E-07    1.647326E-07    1.736101E-07    1.803218E-07    1.841643E-07    1.844274E-07    1.801594E-07    1.648366E-07    1.518563E-07    1.386664E-07    1.246910E-07    1.104005E-07    9.632160E-08    8.289279E-08    7.043042E-08    5.913116E-08    4.908957E-08    4.032051E-08    3.278125E-08    2.639064E-08    2.104415E-08    1.662454E-08    1.301402E-08    1.009750E-08    7.766978E-09    5.924131E-09    4.481621E-09    3.363518E-09    2.505060E-09    1.851972E-09    1.359494E-09    9.912688E-10    7.181739E-10    5.171933E-10    3.703637E-10    2.638314E-10    1.870309E-10    1.319893E-10    9.495506E-11    7.287563E-11    5.642083E-11    4.418384E-11    3.515426E-11    2.856842E-11    2.394723E-11    2.105075E-11    2.004268E-11    2.238986E-11    4.102774E-11    1.947106E-08    1.387811E-08    9.904928E-09    7.093204E-09    5.101636E-09    3.688484E-09    2.683096E-09    1.965547E-09    1.451630E-09    1.082160E-09    8.154771E-10    6.221977E-10    4.814761E-10    3.783290E-10    3.023043E-10    2.461260E-10    2.047097E-10    1.744883E-10    1.523426E-10    1.363780E-10    1.255855E-10    1.197078E-10    1.181843E-10    1.269038E-10    1.996682E-10    5.477560E-10    2.339851E-06    2.575522E-06    2.575522E-06     0.00000         0.00000         0.00000         0.00000         0.00000         0.00000         0.00000         0.00000         0.00000         0.00000         0.00000         0.00000         0.00000         0.00000         0.00000         0.00000         0.00000         0.00000         0.00000         0.00000         0.00000         0.00000         0.00000         0.00000         0.00000         0.00000         0.00000         0.00000         0.00000         0.00000         0.00000         0.00000         0.00000         0.00000         0.00000         0.00000         0.00000         0.00000         0.00000         0.00000         0.00000         0.00000         0.00000         0.00000         0.00000         0.00000         0.00000         0.00000         0.00000         0.00000         0.00000         0.00000         0.00000         0.00000         0.00000         0.00000         0.00000         0.00000         0.00000         0.00000         0.00000         0.00000         0.00000         0.00000         0.00000         0.00000         0.00000         0.00000         0.00000         0.00000         0.00000         0.00000         0.00000         0.00000         0.00000         0.00000         0.00000         0.00000         0.00000         0.00000         0.00000         0.00000         0.00000         0.00000         0.00000         0.00000         0.00000         0.00000         0.00000         0.00000         0.00000         0.00000         0.00000         0.00000         0.00000         0.00000         0.00000         0.00000         0.00000         0.00000         0.00000         0.00000         0.00000         0.00000         0.00000         0.00000         0.00000         0.00000         0.00000         0.00000         0.00000         0.00000         0.00000         0.00000         0.00000         0.00000         0.00000         0.00000         0.00000         0.00000         0.00000         0.00000         0.00000         0.00000         0.00000         0.00000         0.00000         0.00000         0.00000         0.00000         0.00000         0.00000         0.00000         0.00000         0.00000         0.00000         0.00000         0.00000         0.00000         0.00000         0.00000         0.00000         0.00000         0.00000         0.00000         0.00000         0.00000         0.00000         0.00000         0.00000         0.00000         0.00000         0.00000         0.00000         0.00000         0.00000         0.00000         0.00000         0.00000    
1
  CONCENTRATION IN LAYER  48 AT END OF TIME STEP  73 IN STRESS PERIOD    1
  ---------------------------------------------------------------------------

 ........................................................................................................................................................................................................................................................................................................................................................................................................................................................................................................................................................................................................................................................................................................................................................................................................................................................................................................................................................................................................................................
   1      0.00000         0.00000         0.00000         0.00000         0.00000         0.00000         0.00000         0.00000         0.00000         0.00000         0.00000         0.00000         0.00000         0.00000         0.00000         0.00000         0.00000         0.00000         0.00000         0.00000         0.00000         0.00000         0.00000         0.00000         0.00000         0.00000         0.00000         0.00000         0.00000         0.00000         0.00000         0.00000         0.00000         0.00000         0.00000         0.00000         0.00000         0.00000         0.00000         0.00000         0.00000         0.00000         0.00000         0.00000         0.00000         0.00000         0.00000         0.00000         0.00000         0.00000         0.00000         0.00000         0.00000         0.00000         0.00000         0.00000         0.00000         0.00000         0.00000         0.00000         0.00000         0.00000         0.00000         0.00000         0.00000         0.00000         0.00000         0.00000         0.00000         0.00000         0.00000         0.00000         0.00000         0.00000         0.00000         0.00000         0.00000         0.00000         0.00000         0.00000         0.00000         0.00000         0.00000         0.00000         0.00000         0.00000         0.00000         0.00000         0.00000         0.00000         0.00000         0.00000         0.00000         0.00000         0.00000         0.00000         0.00000         0.00000         0.00000         0.00000         0.00000         0.00000         0.00000         0.00000         0.00000         0.00000         0.00000         0.00000         0.00000         0.00000         0.00000         0.00000        9.444290E-02    9.444290E-02    0.130384        0.162863        0.188243        0.206240        0.216342        0.217696        0.215680        0.204545        0.190918        0.190450        0.188238        1.844634E-05    1.849546E-05    1.882959E-05    6.033732E-08    1.283052E-08    7.963815E-09    6.225380E-09    5.419084E-09    5.027637E-09    4.868539E-09    4.864882E-09    4.984657E-09    5.783865E-09    6.641014E-09    7.641116E-09    8.805923E-09    1.015998E-08    1.173081E-08    1.354867E-08    1.564669E-08    1.806093E-08    2.083050E-08    2.399744E-08    2.760640E-08    3.170401E-08    3.633805E-08    4.155648E-08    4.740613E-08    5.393098E-08    6.116956E-08    6.915123E-08    7.789112E-08    8.738313E-08    9.759118E-08    1.084382E-07    1.197935E-07    1.314448E-07    1.430987E-07    1.543618E-07    1.647326E-07    1.736101E-07    1.803218E-07    1.841643E-07    1.844274E-07    1.801594E-07    1.648366E-07    1.518563E-07    1.386664E-07    1.246910E-07    1.104005E-07    9.632160E-08    8.289279E-08    7.043042E-08    5.913116E-08    4.908957E-08    4.032051E-08    3.278125E-08    2.639064E-08    2.104415E-08    1.662454E-08    1.301402E-08    1.009750E-08    7.766978E-09    5.924131E-09    4.481621E-09    3.363518E-09    2.505060E-09    1.851972E-09    1.359494E-09    9.912688E-10    7.181739E-10    5.171933E-10    3.703637E-10    2.638314E-10    1.870309E-10    1.319893E-10    9.495506E-11    7.287563E-11    5.642083E-11    4.418384E-11    3.515426E-11    2.856842E-11    2.394723E-11    2.105075E-11    2.004268E-11    2.238986E-11    4.102774E-11    1.947106E-08    1.387811E-08    9.904928E-09    7.093204E-09    5.101636E-09    3.688484E-09    2.683096E-09    1.965547E-09    1.451630E-09    1.082160E-09    8.154771E-10    6.221977E-10    4.814761E-10    3.783290E-10    3.023043E-10    2.461260E-10    2.047097E-10    1.744883E-10    1.523426E-10    1.363780E-10    1.255855E-10    1.197078E-10    1.181843E-10    1.269038E-10    1.996682E-10    5.477560E-10    2.339851E-06    2.575522E-06    2.575522E-06     0.00000         0.00000         0.00000         0.00000         0.00000         0.00000         0.00000         0.00000         0.00000         0.00000         0.00000         0.00000         0.00000         0.00000         0.00000         0.00000         0.00000         0.00000         0.00000         0.00000         0.00000         0.00000         0.00000         0.00000         0.00000         0.00000         0.00000         0.00000         0.00000         0.00000         0.00000         0.00000         0.00000         0.00000         0.00000         0.00000         0.00000         0.00000         0.00000         0.00000         0.00000         0.00000         0.00000         0.00000         0.00000         0.00000         0.00000         0.00000         0.00000         0.00000         0.00000         0.00000         0.00000         0.00000         0.00000         0.00000         0.00000         0.00000         0.00000         0.00000         0.00000         0.00000         0.00000         0.00000         0.00000         0.00000         0.00000         0.00000         0.00000         0.00000         0.00000         0.00000         0.00000         0.00000         0.00000         0.00000         0.00000         0.00000         0.00000         0.00000         0.00000         0.00000         0.00000         0.00000         0.00000         0.00000         0.00000         0.00000         0.00000         0.00000         0.00000         0.00000         0.00000         0.00000         0.00000         0.00000         0.00000         0.00000         0.00000         0.00000         0.00000         0.00000         0.00000         0.00000         0.00000         0.00000         0.00000         0.00000         0.00000         0.00000         0.00000         0.00000         0.00000         0.00000         0.00000         0.00000         0.00000         0.00000         0.00000         0.00000         0.00000         0.00000         0.00000         0.00000         0.00000         0.00000         0.00000         0.00000         0.00000         0.00000         0.00000         0.00000         0.00000         0.00000         0.00000         0.00000         0.00000         0.00000         0.00000         0.00000         0.00000         0.00000         0.00000         0.00000         0.00000         0.00000         0.00000         0.00000         0.00000         0.00000         0.00000         0.00000         0.00000         0.00000         0.00000         0.00000         0.00000         0.00000         0.00000    
1
  CONCENTRATION IN LAYER  49 AT END OF TIME STEP  73 IN STRESS PERIOD    1
  ---------------------------------------------------------------------------

 ........................................................................................................................................................................................................................................................................................................................................................................................................................................................................................................................................................................................................................................................................................................................................................................................................................................................................................................................................................................................................................................
   1      0.00000         0.00000         0.00000         0.00000         0.00000        4.454239-307    1.176182-303    2.038533-300    3.522342-297    6.068466-294    1.042450-290    1.785475-287    3.049049-284    5.191309-281    8.812097-278    1.491278-274    2.515943-271    4.231473-268    7.094395-265    1.185649-261    1.975140-258    3.279616-255    5.427677-252    8.952678-249    1.471707-245    2.411019-242    3.936148-239    6.403455-236    1.038029-232    1.676631-229    2.698224-226    4.326245-223    6.910615-220    1.099702-216    1.743276-213    2.752776-210    4.329825-207    6.783385-204    1.058478-200    1.644976-197    2.546036-194    3.924487-191    6.024239-188    9.208992-185    1.401859-181    2.125067-178    3.207855-175    4.822034-172    7.218105-169    1.075973-165    1.597264-162    2.361386-159    3.476921-156    5.099053-153    7.448817-150    1.084007-146    1.571728-143    2.270835-140    3.269875-137    4.693545-134    6.717338-131    9.588228-128    1.365409-124    1.940577-121    2.753781-118    3.903691-115    5.531222-112    7.838946-109    1.112049-105    1.580564-102    2.253065E-99    3.224995E-96    4.641667E-93    6.728016E-90    9.838701E-87    1.454432E-83    2.178349E-80    3.313851E-77    5.135026E-74    8.131446E-71    1.320884E-67    2.211291E-64    3.837519E-61    6.956520E-58    1.330735E-54    2.760176E-51    6.229056E-48    1.570979E-44    4.609607E-41    1.684781E-37    8.526238E-34    8.296595E-30    1.136593E-25    3.787502E-23    5.585430E-21    4.992199E-19    3.056171E-17    1.366937E-15    4.645789E-14    1.231245E-12    2.590373E-11    4.381472E-10    6.012798E-09    6.738805E-08    6.196985E-07    4.691620E-06    2.931310E-05    1.514346E-04    6.480568E-04    2.302659E-03    6.816658E-03    1.690320E-02    3.539612E-02    6.257313E-02    9.538277E-02    0.129278        0.159291        0.182525        0.197652        0.201952        0.196898        0.182534        0.163677        0.142147        0.115172        8.885549E-02    6.528816E-02    4.569295E-02    3.048758E-02    1.942471E-02    1.184423E-02    6.930756E-03    3.905006E-03    2.127094E-03    1.125979E-03    5.835820E-04    3.001464E-04    1.571115E-04    1.553396E-04    7.641116E-09    8.805923E-09    1.015998E-08    1.173081E-08    1.354867E-08    1.564669E-08    1.806093E-08    2.083050E-08    2.399744E-08    2.760640E-08    3.170401E-08    3.633805E-08    4.155648E-08    4.740613E-08    5.393098E-08    6.116956E-08    6.915123E-08    7.789112E-08    8.738313E-08    9.759118E-08    1.084382E-07    1.197935E-07    1.314448E-07    1.430987E-07    1.543618E-07    1.647326E-07    1.736101E-07    1.803218E-07    1.841643E-07    1.844274E-07    1.801594E-07    1.648366E-07    1.518563E-07    1.386664E-07    1.246910E-07    1.104005E-07    9.632160E-08    8.289279E-08    7.043042E-08    5.913116E-08    4.908957E-08    4.032051E-08    3.278125E-08    2.639064E-08    2.104415E-08    1.662454E-08    1.301402E-08    1.009750E-08    7.766978E-09    5.924131E-09    4.481621E-09    3.363518E-09    2.505060E-09    1.851972E-09    1.359494E-09    9.912688E-10    7.181739E-10    5.171933E-10    3.703637E-10    2.638314E-10    1.870309E-10    1.319893E-10    9.495506E-11    7.287563E-11    5.642083E-11    4.418384E-11    3.515426E-11    2.856842E-11    2.394723E-11    2.105075E-11    2.004268E-11    2.238986E-11    4.102774E-11    1.947106E-08    1.387811E-08    9.904928E-09    7.093204E-09    5.101636E-09    3.688484E-09    2.683096E-09    1.965547E-09    1.451630E-09    1.082160E-09    8.154771E-10    6.221977E-10    4.814761E-10    3.783290E-10    3.023043E-10    2.461260E-10    2.047097E-10    1.744883E-10    1.523426E-10    1.363780E-10    1.255855E-10    1.197078E-10    1.181843E-10    1.269038E-10    1.996682E-10    5.477560E-10    2.339851E-06    2.575522E-06    2.575522E-06     0.00000         0.00000         0.00000         0.00000         0.00000         0.00000         0.00000         0.00000         0.00000         0.00000         0.00000         0.00000         0.00000         0.00000         0.00000         0.00000         0.00000         0.00000         0.00000         0.00000         0.00000         0.00000         0.00000         0.00000         0.00000         0.00000         0.00000         0.00000         0.00000         0.00000         0.00000         0.00000         0.00000         0.00000         0.00000         0.00000         0.00000         0.00000         0.00000         0.00000         0.00000         0.00000         0.00000         0.00000         0.00000         0.00000         0.00000         0.00000         0.00000         0.00000         0.00000         0.00000         0.00000         0.00000         0.00000         0.00000         0.00000         0.00000         0.00000         0.00000         0.00000         0.00000         0.00000         0.00000         0.00000         0.00000         0.00000         0.00000         0.00000         0.00000         0.00000         0.00000         0.00000         0.00000         0.00000         0.00000         0.00000         0.00000         0.00000         0.00000         0.00000         0.00000         0.00000         0.00000         0.00000         0.00000         0.00000         0.00000         0.00000         0.00000         0.00000         0.00000         0.00000         0.00000         0.00000         0.00000         0.00000         0.00000         0.00000         0.00000         0.00000         0.00000         0.00000         0.00000         0.00000         0.00000         0.00000         0.00000         0.00000         0.00000         0.00000         0.00000         0.00000         0.00000         0.00000         0.00000         0.00000         0.00000         0.00000         0.00000         0.00000         0.00000         0.00000         0.00000         0.00000         0.00000         0.00000         0.00000         0.00000         0.00000         0.00000         0.00000         0.00000         0.00000         0.00000         0.00000         0.00000         0.00000         0.00000         0.00000         0.00000         0.00000         0.00000         0.00000         0.00000         0.00000         0.00000         0.00000         0.00000         0.00000         0.00000         0.00000         0.00000         0.00000         0.00000         0.00000         0.00000         0.00000         0.00000    
1
  CONCENTRATION IN LAYER  50 AT END OF TIME STEP  73 IN STRESS PERIOD    1
  ---------------------------------------------------------------------------

 ........................................................................................................................................................................................................................................................................................................................................................................................................................................................................................................................................................................................................................................................................................................................................................................................................................................................................................................................................................................................................................................
   1      0.00000         0.00000         0.00000         0.00000         0.00000        6.235433-307    1.646038-303    2.851938-300    4.926297-297    8.484833-294    1.457145-290    2.495119-287    4.259900-284    7.251312-281    1.230640-277    2.082235-274    3.512364-271    5.906440-268    9.901331-265    1.654578-261    2.756075-258    4.576019-255    7.572873-252    1.249085-248    2.053356-245    3.364022-242    5.492336-239    8.935942-236    1.448737-232    2.340374-229    3.767109-226    6.041420-223    9.652914-220    1.536551-216    2.436610-213    3.849076-210    6.056760-207    9.493362-204    1.482104-200    2.304627-197    3.569201-194    5.505241-191    8.456781-188    1.293741-184    1.971039-181    2.990497-178    4.518450-175    6.798827-172    1.018782-168    1.520335-165    2.259544-162    3.344593-159    4.930945-156    7.241202-153    1.059306-149    1.543854-146    2.241909-143    3.244288-140    4.679334-137    6.728189-134    9.646330-131    1.379408-127    1.968000-124    2.802312-121    3.984270-118    5.658910-115    8.033642-112    1.140698-108    1.621195-105    2.308262-102    3.295783E-99    4.724563E-96    6.808893E-93    9.880323E-90    1.446136E-86    2.139240E-83    3.205588E-80    4.878305E-77    7.561480E-74    1.197741E-70    1.946286E-67    3.259254E-64    5.656206E-61    1.024494E-57    1.954833E-54    3.978687E-51    8.898661E-48    2.205744E-44    6.262758E-41    2.141435E-37    9.226715E-34    5.305436E-30    3.405773E-26    1.229843E-23    1.914483E-21    1.788016E-19    1.137878E-17    5.275532E-16    1.855627E-14    5.085655E-13    1.106186E-11    1.934701E-10    2.746607E-09    3.186654E-08    3.036390E-07    2.384436E-06    1.547088E-05    8.309724E-05    3.701408E-04    1.370126E-03    4.227352E-03    1.092198E-02    2.379732E-02    4.417724E-02    7.106987E-02    0.101185        0.130215        0.154651        0.172164        0.178716        0.172190        0.157174        0.137746        0.115920        9.250901E-02    7.004632E-02    5.033324E-02    3.434469E-02    2.227982E-02    1.376414E-02    8.115087E-03    4.577281E-03    2.476679E-03    1.289327E-03    6.478948E-04    3.154618E-04    1.495897E-04    6.963707E-05    3.047750E-05    1.282526E-05    5.253984E-06    2.099109E-06    8.192770E-07    3.128648E-07    1.170741E-07    4.299048E-08    1.551423E-08    5.511531E-09    1.932619E-09    6.730624E-10    2.373676E-10    9.028356E-11    4.346242E-11    3.181036E-11    3.345319E-11    4.164567E-11    5.521486E-11    7.569199E-11    1.072626E-10    1.606711E-10    2.320218E-09    1.314448E-07    1.430987E-07    1.543618E-07    1.647326E-07    1.736101E-07    1.803218E-07    1.841643E-07    1.844274E-07    1.801594E-07    1.648366E-07    1.518563E-07    1.386664E-07    1.246910E-07    1.104005E-07    9.632160E-08    8.289279E-08    7.043042E-08    5.913116E-08    4.908957E-08    4.032051E-08    3.278125E-08    2.639064E-08    2.104415E-08    1.662454E-08    1.301402E-08    1.009750E-08    7.766978E-09    5.924131E-09    4.481621E-09    3.363518E-09    2.505060E-09    1.851972E-09    1.359494E-09    9.912688E-10    7.181739E-10    5.171933E-10    3.703637E-10    2.638314E-10    1.870309E-10    1.319893E-10    9.495506E-11    7.287563E-11    5.642083E-11    4.418384E-11    3.515426E-11    2.856842E-11    2.394723E-11    2.105075E-11    2.004268E-11    2.238986E-11    4.102774E-11    1.947106E-08    1.387811E-08    9.904928E-09    7.093204E-09    5.101636E-09    3.688484E-09    2.683096E-09    1.965547E-09    1.451630E-09    1.082160E-09    8.154771E-10    6.221977E-10    4.814761E-10    3.783290E-10    3.023043E-10    2.461260E-10    2.047097E-10    1.744883E-10    1.523426E-10    1.363780E-10    1.255855E-10    1.197078E-10    1.181843E-10    1.269038E-10    1.996682E-10    5.477560E-10    2.339851E-06    2.575522E-06    2.575522E-06     0.00000         0.00000         0.00000         0.00000         0.00000         0.00000         0.00000         0.00000         0.00000         0.00000         0.00000         0.00000         0.00000         0.00000         0.00000         0.00000         0.00000         0.00000         0.00000         0.00000         0.00000         0.00000         0.00000         0.00000         0.00000         0.00000         0.00000         0.00000         0.00000         0.00000         0.00000         0.00000         0.00000         0.00000         0.00000         0.00000         0.00000         0.00000         0.00000         0.00000         0.00000         0.00000         0.00000         0.00000         0.00000         0.00000         0.00000         0.00000         0.00000         0.00000         0.00000         0.00000         0.00000         0.00000         0.00000         0.00000         0.00000         0.00000         0.00000         0.00000         0.00000         0.00000         0.00000         0.00000         0.00000         0.00000         0.00000         0.00000         0.00000         0.00000         0.00000         0.00000         0.00000         0.00000         0.00000         0.00000         0.00000         0.00000         0.00000         0.00000         0.00000         0.00000         0.00000         0.00000         0.00000         0.00000         0.00000         0.00000         0.00000         0.00000         0.00000         0.00000         0.00000         0.00000         0.00000         0.00000         0.00000         0.00000         0.00000         0.00000         0.00000         0.00000         0.00000         0.00000         0.00000         0.00000         0.00000         0.00000         0.00000         0.00000         0.00000         0.00000         0.00000         0.00000         0.00000         0.00000         0.00000         0.00000         0.00000         0.00000         0.00000         0.00000         0.00000         0.00000         0.00000         0.00000         0.00000         0.00000         0.00000         0.00000         0.00000         0.00000         0.00000         0.00000         0.00000         0.00000         0.00000         0.00000         0.00000         0.00000         0.00000         0.00000         0.00000         0.00000         0.00000         0.00000         0.00000         0.00000         0.00000         0.00000         0.00000         0.00000         0.00000         0.00000         0.00000         0.00000         0.00000         0.00000         0.00000    
1
  CONCENTRATION IN LAYER  51 AT END OF TIME STEP  73 IN STRESS PERIOD    1
  ---------------------------------------------------------------------------

 ........................................................................................................................................................................................................................................................................................................................................................................................................................................................................................................................................................................................................................................................................................................................................................................................................................................................................................................................................................................................................................................
   1      0.00000         0.00000         0.00000         0.00000         0.00000        4.202231-307    1.110079-303    1.926799-300    3.334356-297    5.753699-294    9.899999-291    1.698507-287    2.905588-284    4.955918-281    8.428024-278    1.428980-274    2.415525-271    4.070689-268    6.838804-265    1.145336-261    1.912098-258    3.181964-255    5.278025-252    8.726123-249    1.437895-245    2.361407-242    3.864862-239    6.303735-236    1.024575-232    1.659407-229    2.677970-226    4.306091-223    6.898687-220    1.101125-216    1.750953-213    2.773718-210    4.377056-207    6.880447-204    1.077332-200    1.680217-197    2.610056-194    4.038222-191    6.222645-188    9.549815-185    1.459630-181    2.221844-178    3.368256-175    5.085324-172    7.646427-169    1.145073-165    1.707874-162    2.537135-159    3.754222-156    5.533680-153    8.125720-150    1.188795-146    1.733012-143    2.517719-140    3.645829-137    5.263243-134    7.576650-131    1.087883-127    1.558481-124    2.228378-121    3.181434-118    4.537433-115    6.468300-112    9.222307-109    1.316070-105    1.881388-102    2.696901E-99    3.880879E-96    5.613549E-93    8.173933E-90    1.200170E-86    1.780331E-83    2.673848E-80    4.075649E-77    6.321990E-74    1.000995E-70    1.623471E-67    2.708105E-64    4.669117E-61    8.371903E-58    1.573466E-54    3.131688E-51    6.778126E-48    1.597622E-44    4.186347E-41    1.250552E-37    4.230464E-34    1.602066E-30    6.086921E-27    2.742852E-24    4.777410E-22    4.842207E-20    3.296069E-18    1.620938E-16    6.015923E-15    1.733658E-13    3.955916E-12    7.247405E-11    1.076767E-09    1.306851E-08    1.302531E-07    1.070203E-06    7.268948E-06    4.090175E-05    1.910379E-04    7.422687E-04    2.406548E-03    6.540903E-03    1.500990E-02    2.938878E-02    4.983105E-02    7.450644E-02    0.100159        0.123394        0.141557        0.149012        0.142671        0.128776        0.110943        9.134615E-02    7.149858E-02    5.311450E-02    3.743104E-02    2.503246E-02    1.590278E-02    9.612112E-03    5.538443E-03    3.048887E-03    1.607355E-03    8.135235E-04    3.962868E-04    1.862712E-04    8.471332E-05    3.739000E-05    1.601231E-05    6.659872E-06    2.695035E-06    1.062954E-06    4.092939E-07    1.540979E-07    5.680994E-08    2.053553E-08    7.287868E-09    2.542492E-09    8.731634E-10    2.958245E-10    9.938401E-11    3.368509E-11    1.224732E-11    5.675752E-12    4.167902E-12    4.566789E-12    5.982893E-12    8.380164E-12    1.222966E-11    1.864644E-11    2.313459E-11    2.720085E-11    3.184197E-11    3.703455E-11    4.271893E-11    4.878304E-11    5.504810E-11    6.125750E-11    6.706512E-11    7.196253E-11    7.438262E-11    7.531074E-11    7.506008E-11    7.373125E-11    7.146602E-11    6.846743E-11    6.498648E-11    6.130463E-11    5.772560E-11    5.458972E-11    5.233784E-11    5.170410E-11    1.490834E-10    2.104415E-08    1.662454E-08    1.301402E-08    1.009750E-08    7.766978E-09    5.924131E-09    4.481621E-09    3.363518E-09    2.505060E-09    1.851972E-09    1.359494E-09    9.912688E-10    7.181739E-10    5.171933E-10    3.703637E-10    2.638314E-10    1.870309E-10    1.319893E-10    9.495506E-11    7.287563E-11    5.642083E-11    4.418384E-11    3.515426E-11    2.856842E-11    2.394723E-11    2.105075E-11    2.004268E-11    2.238986E-11    4.102774E-11    1.947106E-08    1.387811E-08    9.904928E-09    7.093204E-09    5.101636E-09    3.688484E-09    2.683096E-09    1.965547E-09    1.451630E-09    1.082160E-09    8.154771E-10    6.221977E-10    4.814761E-10    3.783290E-10    3.023043E-10    2.461260E-10    2.047097E-10    1.744883E-10    1.523426E-10    1.363780E-10    1.255855E-10    1.197078E-10    1.181843E-10    1.269038E-10    1.996682E-10    5.477560E-10    2.339851E-06    2.575522E-06    2.575522E-06     0.00000         0.00000         0.00000         0.00000         0.00000         0.00000         0.00000         0.00000         0.00000         0.00000         0.00000         0.00000         0.00000         0.00000         0.00000         0.00000         0.00000         0.00000         0.00000         0.00000         0.00000         0.00000         0.00000         0.00000         0.00000         0.00000         0.00000         0.00000         0.00000         0.00000         0.00000         0.00000         0.00000         0.00000         0.00000         0.00000         0.00000         0.00000         0.00000         0.00000         0.00000         0.00000         0.00000         0.00000         0.00000         0.00000         0.00000         0.00000         0.00000         0.00000         0.00000         0.00000         0.00000         0.00000         0.00000         0.00000         0.00000         0.00000         0.00000         0.00000         0.00000         0.00000         0.00000         0.00000         0.00000         0.00000         0.00000         0.00000         0.00000         0.00000         0.00000         0.00000         0.00000         0.00000         0.00000         0.00000         0.00000         0.00000         0.00000         0.00000         0.00000         0.00000         0.00000         0.00000         0.00000         0.00000         0.00000         0.00000         0.00000         0.00000         0.00000         0.00000         0.00000         0.00000         0.00000         0.00000         0.00000         0.00000         0.00000         0.00000         0.00000         0.00000         0.00000         0.00000         0.00000         0.00000         0.00000         0.00000         0.00000         0.00000         0.00000         0.00000         0.00000         0.00000         0.00000         0.00000         0.00000         0.00000         0.00000         0.00000         0.00000         0.00000         0.00000         0.00000         0.00000         0.00000         0.00000         0.00000         0.00000         0.00000         0.00000         0.00000         0.00000         0.00000         0.00000         0.00000         0.00000         0.00000         0.00000         0.00000         0.00000         0.00000         0.00000         0.00000         0.00000         0.00000         0.00000         0.00000         0.00000         0.00000         0.00000         0.00000         0.00000         0.00000         0.00000         0.00000         0.00000         0.00000         0.00000    
1
  CONCENTRATION IN LAYER  52 AT END OF TIME STEP  73 IN STRESS PERIOD    1
  ---------------------------------------------------------------------------

 ........................................................................................................................................................................................................................................................................................................................................................................................................................................................................................................................................................................................................................................................................................................................................................................................................................................................................................................................................................................................................................................
   1      0.00000         0.00000         0.00000         0.00000         0.00000        1.585314-307    4.191615-304    7.281297-301    1.260674-297    2.176556-294    3.747153-291    6.432621-288    1.101081-284    1.879245-281    3.197930-278    5.425784-275    9.178057-272    1.547816-268    2.602279-265    4.361527-262    7.287154-259    1.213656-255    2.014816-252    3.333954-249    5.498588-246    9.038417-243    1.480693-239    2.417415-236    3.933075-233    6.376604-230    1.030159-226    1.658281-223    2.659695-220    4.250182-217    6.766536-214    1.073225-210    1.695754-207    2.669107-204    4.184889-201    6.535841-198    1.016727-194    1.575360-191    2.431176-188    3.736841-185    5.720538-182    8.721837-179    1.324388-175    2.002899-172    3.016776-169    4.525583-166    6.761845-163    1.006309-159    1.491743-156    2.202829-153    3.240597-150    4.749717-147    6.936776-144    1.009608-140    1.464606-137    2.118076-134    3.054269-131    4.392637-128    6.302602-125    9.024743-122    1.290138-118    1.842112-115    2.628425-112    3.749998-109    5.353251-106    7.652371-103    1.096374E-99    1.576004E-96    2.275673E-93    3.305284E-90    4.836479E-87    7.142286E-84    1.066588E-80    1.614277E-77    2.482378E-74    3.889383E-71    6.228446E-68    1.023080E-64    1.730819E-61    3.030443E-58    5.523363E-55    1.055417E-51    2.132015E-48    4.654365E-45    1.092294E-41    2.775379E-38    7.420504E-35    2.040296E-31    5.338349E-28    3.918937E-25    8.255856E-23    9.493757E-21    7.132062E-19    3.812290E-17    1.523328E-15    4.696486E-14    1.141489E-12    2.220705E-11    3.496164E-10    4.489996E-09    4.731433E-08    4.108594E-07    2.949380E-06    1.754637E-05    8.670114E-05    3.566862E-04    1.225577E-03    3.533248E-03    8.604537E-03    1.787407E-02    3.209019E-02    5.059680E-02    7.130229E-02    9.141498E-02    0.108821        0.115747        0.110754        9.920210E-02    8.429087E-02    6.815572E-02    5.235291E-02    3.816316E-02    2.639328E-02    1.732521E-02    1.080591E-02    6.413843E-03    3.629794E-03    1.962845E-03    1.016531E-03    5.053582E-04    2.417321E-04    1.115121E-04    4.972104E-05    2.147611E-05    9.003416E-06    3.669682E-06    1.456486E-06    5.637766E-07    2.131403E-07    7.880998E-08    2.853759E-08    1.013215E-08    3.531257E-09    1.209397E-09    4.074501E-10    1.351851E-10    4.424025E-11    1.433335E-11    4.656446E-12    1.592730E-12    6.714547E-13    4.512213E-13    4.826038E-13    6.435551E-13    9.338284E-13    1.423559E-12    1.953875E-12    2.483323E-12    3.053208E-12    3.687564E-12    4.398491E-12    5.187764E-12    6.046412E-12    6.953287E-12    7.872865E-12    8.747765E-12    9.443028E-12    9.930089E-12    1.021172E-11    1.029783E-11    1.020510E-11    9.958274E-12    9.590260E-12    9.140848E-12    8.655327E-12    8.184697E-12    7.790545E-12    7.554229E-12    7.345113E-12    5.897509E-12    4.700553E-12    3.719758E-12    2.923511E-12    2.283021E-12    1.772413E-12    1.368810E-12    1.052337E-12    8.060258E-13    6.156293E-13    4.693711E-13    3.576549E-13    2.727633E-13    2.085659E-13    1.602493E-13    1.240799E-13    9.720403E-14    7.749973E-14    6.416153E-14    5.778461E-14    5.807733E-14    1.903443E-13    3.515426E-11    2.856842E-11    2.394723E-11    2.105075E-11    2.004268E-11    2.238986E-11    4.102774E-11    1.947106E-08    1.387811E-08    9.904928E-09    7.093204E-09    5.101636E-09    3.688484E-09    2.683096E-09    1.965547E-09    1.451630E-09    1.082160E-09    8.154771E-10    6.221977E-10    4.814761E-10    3.783290E-10    3.023043E-10    2.461260E-10    2.047097E-10    1.744883E-10    1.523426E-10    1.363780E-10    1.255855E-10    1.197078E-10    1.181843E-10    1.269038E-10    1.996682E-10    5.477560E-10    2.339851E-06    2.556089E-06    2.556088E-06    2.556088E-06     0.00000         0.00000         0.00000         0.00000         0.00000         0.00000         0.00000         0.00000         0.00000         0.00000         0.00000         0.00000         0.00000         0.00000         0.00000         0.00000         0.00000         0.00000         0.00000         0.00000         0.00000         0.00000         0.00000         0.00000         0.00000         0.00000         0.00000         0.00000         0.00000         0.00000         0.00000         0.00000         0.00000         0.00000         0.00000         0.00000         0.00000         0.00000         0.00000         0.00000         0.00000         0.00000         0.00000         0.00000         0.00000         0.00000         0.00000         0.00000         0.00000         0.00000         0.00000         0.00000         0.00000         0.00000         0.00000         0.00000         0.00000         0.00000         0.00000         0.00000         0.00000         0.00000         0.00000         0.00000         0.00000         0.00000         0.00000         0.00000         0.00000         0.00000         0.00000         0.00000         0.00000         0.00000         0.00000         0.00000         0.00000         0.00000         0.00000         0.00000         0.00000         0.00000         0.00000         0.00000         0.00000         0.00000         0.00000         0.00000         0.00000         0.00000         0.00000         0.00000         0.00000         0.00000         0.00000         0.00000         0.00000         0.00000         0.00000         0.00000         0.00000         0.00000         0.00000         0.00000         0.00000         0.00000         0.00000         0.00000         0.00000         0.00000         0.00000         0.00000         0.00000         0.00000         0.00000         0.00000         0.00000         0.00000         0.00000         0.00000         0.00000         0.00000         0.00000         0.00000         0.00000         0.00000         0.00000         0.00000         0.00000         0.00000         0.00000         0.00000         0.00000         0.00000         0.00000         0.00000         0.00000         0.00000         0.00000         0.00000         0.00000         0.00000         0.00000         0.00000         0.00000         0.00000         0.00000         0.00000         0.00000         0.00000         0.00000         0.00000         0.00000         0.00000         0.00000         0.00000         0.00000         0.00000    
1
  CONCENTRATION IN LAYER  53 AT END OF TIME STEP  73 IN STRESS PERIOD    1
  ---------------------------------------------------------------------------

 ........................................................................................................................................................................................................................................................................................................................................................................................................................................................................................................................................................................................................................................................................................................................................................................................................................................................................................................................................................................................................................................
   1      0.00000         0.00000         0.00000         0.00000         0.00000        3.291918-308    8.710543-305    1.515310-301    2.624468-298    4.532823-295    7.806836-292    1.340756-288    2.296052-285    3.920663-282    6.675298-279    1.133189-275    1.917965-272    3.236472-269    5.444794-266    9.131753-263    1.526773-259    2.544642-256    4.227604-253    7.001009-250    1.155603-246    1.901170-243    3.117309-240    5.094102-237    8.295951-234    1.346348-230    2.177321-227    3.508678-224    5.633807-221    9.013212-218    1.436674-214    2.281500-211    3.609511-208    5.688861-205    8.931718-202    1.396890-198    2.176166-195    3.376848-192    5.219258-189    8.034767-186    1.231960-182    1.881362-179    2.861519-176    4.334790-173    6.540161-170    9.827951-167    1.470960-163    2.192883-160    3.256304-157    4.816740-154    7.097897-151    1.042055-147    1.524333-144    2.222028-141    3.228203-138    4.675044-135    6.750063-132    9.719065-129    1.395880-125    2.000362-122    2.861248-119    4.086595-116    5.830765-113    8.315261-110    1.185976-106    1.692886-103    2.420356-100    3.469198E-97    4.990379E-94    7.212962E-91    1.048968E-87    1.537271E-84    2.274228E-81    3.402967E-78    5.161316E-75    7.953837E-72    1.248645E-68    2.002531E-65    3.291046E-62    5.560913E-59    9.695357E-56    1.750669E-52    3.285670E-49    6.423359E-46    1.322010E-42    2.806027E-39    6.004887E-36    1.231266E-32    2.267152E-29    3.339975E-26    9.636172E-24    1.331330E-21    1.144705E-19    6.830185E-18    3.001055E-16    1.007398E-14    2.647821E-13    5.543669E-12    9.360211E-11    1.286069E-09    1.447475E-08    1.341092E-07    1.026626E-06    6.512352E-06    3.431954E-05    1.506483E-04    5.525948E-04    1.701338E-03    4.424299E-03    9.803344E-03    1.872485E-02    3.126892E-02    4.638033E-02    6.219517E-02    7.733862E-02    8.298558E-02    7.971525E-02    7.109932E-02    5.975933E-02    4.758101E-02    3.591682E-02    2.570788E-02    1.745417E-02    1.124987E-02    6.892280E-03    4.020392E-03    2.237252E-03    1.190246E-03    6.067545E-04    2.970554E-04    1.399894E-04    6.364262E-05    2.797206E-05    1.191013E-05    4.922273E-06    1.978091E-06    7.742407E-07    2.956156E-07    1.102633E-07    4.023250E-08    1.437855E-08    5.039164E-09    1.733744E-09    5.861931E-10    1.949590E-10    6.383979E-11    2.060121E-11    6.559609E-12    2.066291E-12    6.497445E-13    2.114919E-13    8.132912E-14    4.879632E-14    4.984127E-14    6.751174E-14    1.016180E-13    1.463150E-13    1.965444E-13    2.519288E-13    3.136600E-13    3.831088E-13    4.611497E-13    5.477585E-13    6.416982E-13    7.402040E-13    8.383459E-13    9.259656E-13    9.954942E-13    1.042897E-12    1.066812E-12    1.067854E-12    1.048196E-12    1.011247E-12    9.613694E-13    9.035836E-13    8.433899E-13    7.869101E-13    7.413604E-13    7.057410E-13    6.192638E-13    5.182237E-13    4.204860E-13    3.339307E-13    2.610856E-13    2.017626E-13    1.545412E-13    1.175733E-13    8.899615E-14    6.712286E-14    5.051317E-14    3.798190E-14    2.857829E-14    2.155384E-14    1.632802E-14    1.245632E-14    9.602773E-15    7.518701E-15    6.058947E-15    5.192211E-15    4.901963E-15    5.356538E-15    4.202811E-15    3.385693E-15    2.815150E-15    2.445096E-15    2.279647E-15    2.722575E-15    2.483233E-14    1.480012E-12    1.713613E-12    1.533703E-12    1.257645E-12    9.974250E-13    7.839366E-13    6.187060E-13    4.944764E-13    4.028344E-13    3.367123E-13    2.910717E-13    2.632112E-13    2.536890E-13    2.701615E-13    3.498046E-13    2.667722E-12    2.047097E-10    1.744883E-10    1.523426E-10    1.363780E-10    1.255855E-10    1.197078E-10    1.181843E-10    1.269038E-10    1.996682E-10    5.477560E-10    2.396776E-06    2.396787E-06    2.444413E-06    2.446819E-06    2.446819E-06     0.00000         0.00000         0.00000         0.00000         0.00000         0.00000         0.00000         0.00000         0.00000         0.00000         0.00000         0.00000         0.00000         0.00000         0.00000         0.00000         0.00000         0.00000         0.00000         0.00000         0.00000         0.00000         0.00000         0.00000         0.00000         0.00000         0.00000         0.00000         0.00000         0.00000         0.00000         0.00000         0.00000         0.00000         0.00000         0.00000         0.00000         0.00000         0.00000         0.00000         0.00000         0.00000         0.00000         0.00000         0.00000         0.00000         0.00000         0.00000         0.00000         0.00000         0.00000         0.00000         0.00000         0.00000         0.00000         0.00000         0.00000         0.00000         0.00000         0.00000         0.00000         0.00000         0.00000         0.00000         0.00000         0.00000         0.00000         0.00000         0.00000         0.00000         0.00000         0.00000         0.00000         0.00000         0.00000         0.00000         0.00000         0.00000         0.00000         0.00000         0.00000         0.00000         0.00000         0.00000         0.00000         0.00000         0.00000         0.00000         0.00000         0.00000         0.00000         0.00000         0.00000         0.00000         0.00000         0.00000         0.00000         0.00000         0.00000         0.00000         0.00000         0.00000         0.00000         0.00000         0.00000         0.00000         0.00000         0.00000         0.00000         0.00000         0.00000         0.00000         0.00000         0.00000         0.00000         0.00000         0.00000         0.00000         0.00000         0.00000         0.00000         0.00000         0.00000         0.00000         0.00000         0.00000         0.00000         0.00000         0.00000         0.00000         0.00000         0.00000         0.00000         0.00000         0.00000         0.00000         0.00000         0.00000         0.00000         0.00000         0.00000         0.00000         0.00000         0.00000         0.00000         0.00000         0.00000         0.00000         0.00000         0.00000         0.00000         0.00000         0.00000         0.00000         0.00000         0.00000         0.00000    
1
  CONCENTRATION IN LAYER  54 AT END OF TIME STEP  73 IN STRESS PERIOD    1
  ---------------------------------------------------------------------------

 ........................................................................................................................................................................................................................................................................................................................................................................................................................................................................................................................................................................................................................................................................................................................................................................................................................................................................................................................................................................................................................................
   1      0.00000         0.00000         0.00000         0.00000         0.00000         0.00000        1.993883-305    3.508603-302    6.068639-299    1.046747-295    1.800434-292    3.088062-289    5.281494-286    9.006936-283    1.531561-279    2.596663-276    4.389419-273    7.397670-270    1.242982-266    2.082103-263    3.476894-260    5.787853-257    9.604270-254    1.588605-250    2.619123-247    4.303955-244    7.049113-241    1.150639-237    1.871822-234    3.034545-231    4.902399-228    7.892100-225    1.265984-221    2.023475-218    3.222440-215    5.112959-212    8.082464-209    1.272867-205    1.996987-202    3.121079-199    4.859126-196    7.535677-193    1.164086-189    1.791168-186    2.745155-183    4.190532-180    6.371450-177    9.648753-174    1.455350-170    2.186402-167    3.271634-164    4.876197-161    7.239253-158    1.070585-154    1.577202-151    2.314848-148    3.385039-145    4.932364-142    7.162248-139    1.036594-135    1.495567-132    2.151421-129    3.086493-126    4.417117-123    6.307774-120    8.991382-117    1.279855-113    1.820014-110    2.586970-107    3.677605-104    5.232215-101    7.455589E-98    1.064947E-94    1.526324E-91    2.197434E-88    3.181804E-85    4.640047E-82    6.825506E-79    1.014506E-75    1.526505E-72    2.329962E-69    3.615317E-66    5.715621E-63    9.227008E-60    1.524076E-56    2.579457E-53    4.474545E-50    7.940267E-47    1.431996E-43    2.588906E-40    4.579690E-37    7.622587E-34    1.129305E-30    1.382880E-27    7.242740E-25    1.310936E-22    1.352122E-20    9.293173E-19    4.596402E-17    1.711633E-15    4.941472E-14    1.128441E-12    2.067681E-11    3.071735E-10    3.728270E-09    3.718237E-08    3.060249E-07    2.085707E-06    1.180595E-05    5.566075E-05    2.192954E-04    7.250821E-04    2.023611E-03    4.804466E-03    9.803218E-03    1.740658E-02    2.729475E-02    3.895626E-02    4.992503E-02    5.441550E-02    5.269768E-02    4.696870E-02    3.917192E-02    3.079526E-02    2.288782E-02    1.610623E-02    1.074443E-02    6.803910E-03    4.096526E-03    2.349430E-03    1.286162E-03    6.735492E-04    3.381950E-04    1.631837E-04    7.583526E-05    3.401693E-05    1.475898E-05    6.206112E-06    2.533973E-06    1.006390E-06    3.894256E-07    1.470422E-07    5.425500E-08    1.958835E-08    6.928779E-09    2.403914E-09    8.189401E-10    2.742154E-10    9.033227E-11    2.930111E-11    9.366411E-12    2.953020E-12    9.191670E-13    2.830082E-13    8.674929E-14    2.719040E-14    9.701827E-15    5.210128E-15    5.046661E-15    6.934801E-15    1.010131E-14    1.410526E-14    1.876574E-14    2.407541E-14    3.011297E-14    3.697003E-14    4.469358E-14    5.323951E-14    6.243103E-14    7.190087E-14    8.091516E-14    8.867665E-14    9.455781E-14    9.818501E-14    9.943845E-14    9.841823E-14    9.540055E-14    9.079190E-14    8.508480E-14    7.882182E-14    7.258195E-14    6.699030E-14    6.228156E-14    5.586118E-14    4.805594E-14    3.983853E-14    3.203623E-14    2.514387E-14    1.936112E-14    1.468858E-14    1.101728E-14    8.192835E-15    6.054432E-15    4.455180E-15    3.270384E-15    2.399011E-15    1.761765E-15    1.297815E-15    9.612993E-16    7.181312E-16    5.433757E-16    4.202958E-16    3.399177E-16    2.974582E-16    2.960625E-16    2.562363E-16    2.127003E-16    1.762424E-16    1.495384E-16    1.341778E-16    1.644813E-16    1.676637E-15    5.369433E-14    8.149597E-14    8.516159E-14    7.634631E-14    6.356677E-14    5.111149E-14    4.058694E-14    3.228657E-14    2.598921E-14    2.134448E-14    1.803564E-14    1.584725E-14    1.472248E-14    1.493018E-14    1.783394E-14    1.814813E-14    1.517416E-14    1.302085E-14    1.146253E-14    1.035485E-14    9.898071E-15    4.724395E-14    6.293500E-12    1.852314E-09    1.100450E-07    5.142132E-07    1.189308E-06    1.746248E-06    2.044145E-06    1.901736E-06    1.549461E-06    1.165254E-06    8.402303E-07    5.952177E-07    4.352827E-07    4.352827E-07     0.00000         0.00000         0.00000         0.00000         0.00000         0.00000         0.00000         0.00000         0.00000         0.00000         0.00000         0.00000         0.00000         0.00000         0.00000         0.00000         0.00000         0.00000         0.00000         0.00000         0.00000         0.00000         0.00000         0.00000         0.00000         0.00000         0.00000         0.00000         0.00000         0.00000         0.00000         0.00000         0.00000         0.00000         0.00000         0.00000         0.00000         0.00000         0.00000         0.00000         0.00000         0.00000         0.00000         0.00000         0.00000         0.00000         0.00000         0.00000         0.00000         0.00000         0.00000         0.00000         0.00000         0.00000         0.00000         0.00000         0.00000         0.00000         0.00000         0.00000         0.00000         0.00000         0.00000         0.00000         0.00000         0.00000         0.00000         0.00000         0.00000         0.00000         0.00000         0.00000         0.00000         0.00000         0.00000         0.00000         0.00000         0.00000         0.00000         0.00000         0.00000         0.00000         0.00000         0.00000         0.00000         0.00000         0.00000         0.00000         0.00000         0.00000         0.00000         0.00000         0.00000         0.00000         0.00000         0.00000         0.00000         0.00000         0.00000         0.00000         0.00000         0.00000         0.00000         0.00000         0.00000         0.00000         0.00000         0.00000         0.00000         0.00000         0.00000         0.00000         0.00000         0.00000         0.00000         0.00000         0.00000         0.00000         0.00000         0.00000         0.00000         0.00000         0.00000         0.00000         0.00000         0.00000         0.00000         0.00000         0.00000         0.00000         0.00000         0.00000         0.00000         0.00000         0.00000         0.00000         0.00000         0.00000         0.00000         0.00000         0.00000         0.00000         0.00000         0.00000         0.00000         0.00000         0.00000         0.00000         0.00000         0.00000         0.00000         0.00000    
1
  CONCENTRATION IN LAYER  55 AT END OF TIME STEP  73 IN STRESS PERIOD    1
  ---------------------------------------------------------------------------

 ........................................................................................................................................................................................................................................................................................................................................................................................................................................................................................................................................................................................................................................................................................................................................................................................................................................................................................................................................................................................................................................
   1      0.00000         0.00000         0.00000         0.00000         0.00000         0.00000        3.404823-306    6.184484-303    1.069617-299    1.844763-296    3.172862-293    5.441862-290    9.307165-287    1.587261-283    2.699152-280    4.576581-277    7.737067-274    1.304124-270    2.191566-267    3.671712-264    6.132620-261    1.021108-257    1.694845-254    2.804175-251    4.624671-248    7.602231-245    1.245573-241    2.033989-238    3.310262-235    5.369005-232    8.678124-229    1.397788-225    2.243488-222    3.588027-219    5.717690-216    9.078248-213    1.436096-209    2.263338-206    3.553726-203    5.558690-200    8.661651-197    1.344483-193    2.078852-190    3.201802-187    4.911995-184    7.505942-181    1.142430-177    1.731914-174    2.615127-171    3.933044-168    5.891654-165    8.790715-162    1.306470-158    1.934091-155    2.852169-152    4.190041-149    6.132472-146    8.942592-143    1.299407-139    1.881625-136    2.715736-133    3.907330-130    5.605232-127    8.019060-124    1.144405-120    1.629629-117    2.316295-114    3.287450-111    4.660910-108    6.604487-105    9.358412-102    1.326869E-98    1.883725E-95    2.679830E-92    3.823603E-89    5.476837E-86    7.883804E-83    1.141798E-79    1.665815E-76    2.451398E-73    3.643598E-70    5.477004E-67    8.336023E-64    1.285732E-60    2.010175E-57    3.183271E-54    5.093055E-51    8.188989E-48    1.310389E-44    2.053136E-41    3.070328E-38    4.217937E-35    5.035294E-32    4.798605E-29    3.100296E-26    8.702106E-24    1.154001E-21    9.515826E-20    5.448623E-18    2.298934E-16    7.414313E-15    1.872913E-13    3.769407E-12    6.118923E-11    8.084394E-10    8.752282E-09    7.804159E-08    5.754604E-07    3.520957E-06    1.793235E-05    7.628094E-05    2.721280E-04    8.184764E-04    2.089968E-03    4.571818E-03    8.668491E-03    1.463765E-02    2.206400E-02    2.910155E-02    3.238770E-02    3.174535E-02    2.837446E-02    2.355744E-02    1.833897E-02    1.345148E-02    9.323362E-03    6.119669E-03    3.811539E-03    2.257194E-03    1.273669E-03    6.863241E-04    3.539804E-04    1.751490E-04    8.333110E-05    3.820732E-05    1.691851E-05    7.250177E-06    3.012701E-06    1.216145E-06    4.777347E-07    1.829203E-07    6.837003E-08    2.498096E-08    8.934322E-09    3.131508E-09    1.076907E-09    3.637429E-10    1.207894E-10    3.947098E-11    1.270314E-11    4.029695E-12    1.260915E-12    3.894653E-13    1.188459E-13    3.588232E-14    1.077005E-14    3.279504E-15    1.106306E-15    5.423096E-16    5.003767E-16    6.650886E-16    9.371160E-16    1.281978E-15    1.689643E-15    2.161631E-15    2.704235E-15    3.323193E-15    4.018974E-15    4.782399E-15    5.589510E-15    6.390837E-15    7.121169E-15    7.717129E-15    8.130774E-15    8.336090E-15    8.329678E-15    8.127976E-15    7.762794E-15    7.276341E-15    6.716618E-15    6.134266E-15    5.581089E-15    5.089604E-15    4.565486E-15    3.976981E-15    3.350395E-15    2.732850E-15    2.165912E-15    1.675041E-15    1.269457E-15    9.465033E-16    6.967087E-16    5.078420E-16    3.675457E-16    2.647436E-16    1.901994E-16    1.365723E-16    9.822137E-17    7.091738E-17    5.154856E-17    3.786247E-17    2.829362E-17    2.185144E-17    1.794326E-17    1.638189E-17    1.444123E-17    1.223366E-17    1.017067E-17    8.497534E-18    7.377192E-18    8.853183E-18    8.050330E-17    1.780941E-15    3.278511E-15    3.908764E-15    3.822277E-15    3.358938E-15    2.781794E-15    2.234774E-15    1.775477E-15    1.414545E-15    1.142668E-15    9.453482E-16    8.101102E-16    7.308026E-16    7.148997E-16    8.095958E-16    8.614438E-16    7.835668E-16    6.941337E-16    6.241302E-16    5.818721E-16    7.352667E-16    2.035987E-14    2.588316E-12    3.642085E-10    3.082390E-08    2.186174E-07    6.293973E-07    1.124915E-06    1.474342E-06    1.335651E-06    1.051938E-06    7.641899E-07    5.246451E-07    3.461601E-07    2.240826E-07    1.365169E-07    7.867359E-08    4.444390E-08    2.472506E-08    1.360393E-08    7.436579E-09    4.062023E-09    2.236254E-09    1.261663E-09    7.611457E-10    7.611457E-10     0.00000         0.00000         0.00000         0.00000         0.00000         0.00000         0.00000         0.00000         0.00000         0.00000         0.00000         0.00000         0.00000         0.00000         0.00000         0.00000         0.00000         0.00000         0.00000         0.00000         0.00000         0.00000         0.00000         0.00000         0.00000         0.00000         0.00000         0.00000         0.00000         0.00000         0.00000         0.00000         0.00000         0.00000         0.00000         0.00000         0.00000         0.00000         0.00000         0.00000         0.00000         0.00000         0.00000         0.00000         0.00000         0.00000         0.00000         0.00000         0.00000         0.00000         0.00000         0.00000         0.00000         0.00000         0.00000         0.00000         0.00000         0.00000         0.00000         0.00000         0.00000         0.00000         0.00000         0.00000         0.00000         0.00000         0.00000         0.00000         0.00000         0.00000         0.00000         0.00000         0.00000         0.00000         0.00000         0.00000         0.00000         0.00000         0.00000         0.00000         0.00000         0.00000         0.00000         0.00000         0.00000         0.00000         0.00000         0.00000         0.00000         0.00000         0.00000         0.00000         0.00000         0.00000         0.00000         0.00000         0.00000         0.00000         0.00000         0.00000         0.00000         0.00000         0.00000         0.00000         0.00000         0.00000         0.00000         0.00000         0.00000         0.00000         0.00000         0.00000         0.00000         0.00000         0.00000         0.00000         0.00000         0.00000         0.00000         0.00000         0.00000         0.00000         0.00000         0.00000         0.00000         0.00000         0.00000         0.00000         0.00000         0.00000         0.00000         0.00000         0.00000         0.00000         0.00000         0.00000         0.00000         0.00000         0.00000         0.00000         0.00000         0.00000    
1
  CONCENTRATION IN LAYER  56 AT END OF TIME STEP  73 IN STRESS PERIOD    1
  ---------------------------------------------------------------------------

 ........................................................................................................................................................................................................................................................................................................................................................................................................................................................................................................................................................................................................................................................................................................................................................................................................................................................................................................................................................................................................................................
   1      0.00000         0.00000         0.00000         0.00000         0.00000         0.00000        3.343744-307    8.877404-304    1.537158-300    2.653942-297    4.569609-294    7.846368-291    1.343531-287    2.294049-284    3.905900-281    6.631157-278    1.122519-274    1.894610-271    3.188262-268    5.349107-265    8.947191-262    1.491953-258    2.480112-255    4.109785-252    6.788639-249    1.117753-245    1.834393-242    3.000582-239    4.891797-236    7.948121-233    1.286994-229    2.076767-226    3.339498-223    5.351058-220    8.543707-217    1.359204-213    2.154456-210    3.402432-207    5.353330-204    8.391237-201    1.310329-197    2.038322-194    3.158567-191    4.875505-188    7.496349-185    1.148076-181    1.751350-178    2.661032-175    4.027138-172    6.070288-169    9.113553-166    1.362806-162    2.029801-159    3.011304-156    4.449903-153    6.550256-150    9.605056-147    1.403147-143    2.042217-140    2.961672-137    4.280128-134    6.164791-131    8.850920-128    1.266905-124    1.808314-121    2.574422-118    3.656598-115    5.183199-112    7.334826-109    1.036620-105    1.463772-102    2.066138E-99    2.916797E-96    4.120659E-93    5.829291E-90    8.263224E-87    1.174580E-83    1.675489E-80    2.400246E-77    3.455733E-74    5.003460E-71    7.288573E-68    1.068347E-64    1.575086E-61    2.332791E-58    3.461907E-55    5.124538E-52    7.510348E-49    1.077161E-45    1.485695E-42    1.921189E-39    2.246536E-36    2.257145E-33    1.808084E-30    1.026540E-27    3.541116E-25    6.850695E-23    7.192467E-21    4.945062E-19    2.425376E-17    8.909629E-16    2.528575E-14    5.662082E-13    1.015411E-11    1.474330E-10    1.747211E-09    1.700424E-08    1.365558E-07    9.084743E-07    5.024495E-06    2.318364E-05    8.960012E-05    2.914729E-04    8.031350E-04    1.891037E-03    3.914780E-03    7.089593E-03    1.120032E-02    1.525215E-02    1.739932E-02    1.732078E-02    1.557840E-02    1.291742E-02    9.987868E-03    7.249109E-03    4.959773E-03    3.209068E-03    1.968806E-03    1.148208E-03    6.381075E-04    3.387486E-04    1.721943E-04    8.401360E-05    3.943458E-05    1.784744E-05    7.805112E-06    3.305034E-06    1.357709E-06    5.420792E-07    2.107098E-07    7.986654E-08    2.956305E-08    1.070138E-08    3.793127E-09    1.318086E-09    4.495355E-10    1.506292E-10    4.963618E-11    1.609983E-11    5.144466E-12    1.620662E-12    5.037234E-13    1.545733E-13    4.686031E-14    1.404492E-14    4.166765E-15    1.228132E-15    3.654894E-16    1.183947E-16    5.430062E-17    4.693714E-17    5.963158E-17    8.158907E-17    1.096429E-16    1.430979E-16    1.821559E-16    2.272561E-16    2.786329E-16    3.359268E-16    3.977611E-16    4.610612E-16    5.212237E-16    5.730947E-16    6.121286E-16    6.352389E-16    6.411777E-16    6.305078E-16    6.053058E-16    5.687333E-16    5.245859E-16    4.769180E-16    4.297890E-16    3.862861E-16    3.439591E-16    3.003209E-16    2.552563E-16    2.105703E-16    1.686572E-16    1.314634E-16    1.000484E-16    7.460565E-17    5.470532E-17    3.957649E-17    2.833563E-17    2.013431E-17    1.423536E-17    1.003868E-17    7.077565E-18    5.000907E-18    3.551019E-18    2.542488E-18    1.845395E-18    1.373095E-18    1.070517E-18    9.080174E-19    7.856357E-19    6.692954E-19    5.599440E-19    4.660807E-19    3.972207E-19    4.573482E-19    3.474157E-18    5.941514E-17    1.273534E-16    1.711086E-16    1.829736E-16    1.715740E-16    1.486402E-16    1.229485E-16    9.934899E-17    7.978547E-17    6.456896E-17    5.331227E-17    4.549174E-17    4.079827E-17    3.957522E-17    4.402738E-17    4.910207E-17    4.915955E-17    4.727396E-17    4.597866E-17    4.785011E-17    1.619778E-16    1.174028E-14    1.239996E-12    1.196736E-10    7.414090E-09    7.331322E-08    2.866971E-07    6.207818E-07    8.739166E-07    8.147045E-07    6.435379E-07    4.640156E-07    3.139030E-07    2.022771E-07    1.257033E-07    7.548378E-08    4.380977E-08    2.474651E-08    1.367653E-08    7.426991E-09    3.977979E-09    2.109343E-09    1.112163E-09    5.869045E-10    3.140381E-10    1.640845E-10    8.079338E-11    3.958202E-11    1.932854E-11    9.425259E-12    4.600073E-12    2.253932E-12    1.113826E-12    5.595190E-13    2.903977E-13    1.626267E-13    1.626267E-13     0.00000         0.00000         0.00000         0.00000         0.00000         0.00000         0.00000         0.00000         0.00000         0.00000         0.00000         0.00000         0.00000         0.00000         0.00000         0.00000         0.00000         0.00000         0.00000         0.00000         0.00000         0.00000         0.00000         0.00000         0.00000         0.00000         0.00000         0.00000         0.00000         0.00000         0.00000         0.00000         0.00000         0.00000         0.00000         0.00000         0.00000         0.00000         0.00000         0.00000         0.00000         0.00000         0.00000         0.00000         0.00000         0.00000         0.00000         0.00000         0.00000         0.00000         0.00000         0.00000         0.00000         0.00000         0.00000         0.00000         0.00000         0.00000         0.00000         0.00000         0.00000         0.00000         0.00000         0.00000         0.00000         0.00000         0.00000         0.00000         0.00000         0.00000         0.00000         0.00000         0.00000         0.00000         0.00000         0.00000         0.00000         0.00000         0.00000         0.00000         0.00000         0.00000         0.00000         0.00000         0.00000         0.00000         0.00000         0.00000         0.00000         0.00000         0.00000         0.00000         0.00000         0.00000         0.00000         0.00000         0.00000         0.00000         0.00000         0.00000         0.00000         0.00000         0.00000         0.00000         0.00000         0.00000         0.00000         0.00000         0.00000         0.00000         0.00000         0.00000         0.00000         0.00000         0.00000         0.00000         0.00000         0.00000         0.00000         0.00000         0.00000         0.00000         0.00000         0.00000         0.00000         0.00000         0.00000         0.00000         0.00000         0.00000         0.00000    
1
  CONCENTRATION IN LAYER  57 AT END OF TIME STEP  73 IN STRESS PERIOD    1
  ---------------------------------------------------------------------------

 ........................................................................................................................................................................................................................................................................................................................................................................................................................................................................................................................................................................................................................................................................................................................................................................................................................................................................................................................................................................................................................................
   1      0.00000         0.00000         0.00000         0.00000         0.00000         0.00000        4.245475-308    1.125007-304    1.953966-301    3.379373-298    5.828902-295    1.002666-291    1.720013-288    2.942385-285    5.019338-282    8.538052-279    1.448181-275    2.449200-272    4.129989-269    6.943557-266    1.163881-262    1.944972-259    3.240269-256    5.381406-253    8.909256-250    1.470286-246    2.418582-243    3.965532-240    6.480476-237    1.055505-233    1.713345-230    2.771678-227    4.468249-224    7.178126-221    1.149071-217    1.832851-214    2.912965-211    4.612691-208    7.277255-205    1.143823-201    1.791068-198    2.793908-195    4.341542-192    6.720380-189    1.036211-185    1.591459-182    2.434578-179    3.709573-176    5.629731-173    8.509587-170    1.281097-166    1.920905-163    2.868671-160    4.266872-157    6.321192-154    9.327364-151    1.370893-147    2.007018-144    2.927019-141    4.252612-138    6.155690-135    8.878315-132    1.276047-128    1.827857-125    2.609899-122    3.715242-119    5.273738-116    7.466471-113    1.054597-109    1.486459-106    2.091452-103    2.938445-100    4.124002E-97    5.783881E-94    8.109498E-91    1.137158E-87    1.595415E-84    2.240334E-81    3.149698E-78    4.434247E-75    6.251135E-72    8.821580E-69    1.245209E-65    1.755533E-62    2.465912E-59    3.437617E-56    4.728054E-53    6.360180E-50    8.263774E-47    1.018952E-43    1.163625E-40    1.190388E-37    1.042223E-34    7.327142E-32    3.776741E-29    1.273637E-26    2.643372E-24    3.867634E-22    3.366965E-20    1.985108E-18    8.506145E-17    2.761739E-15    6.980797E-14    1.399637E-12    2.255930E-11    2.951973E-10    3.159332E-09    2.781391E-08    2.023555E-07    1.221447E-06    6.140013E-06    2.580650E-05    9.113248E-05    2.728975E-04    7.127568E-04    1.594578E-03    3.072421E-03    5.087608E-03    7.168801E-03    8.405621E-03    8.523162E-03    7.737783E-03    6.428176E-03    4.951619E-03    3.565946E-03    2.414274E-03    1.543065E-03    9.342150E-04    5.373834E-04    2.945191E-04    1.542035E-04    7.732897E-05    3.723343E-05    1.725438E-05    7.713090E-06    3.333183E-06    1.395341E-06    5.669288E-07    2.239698E-07    8.617825E-08    3.234737E-08    1.186185E-08    4.255327E-09    1.495321E-09    5.153139E-10    1.743506E-10    5.797409E-11    1.896340E-11    6.107370E-12    1.938227E-12    6.065953E-13    1.873468E-13    5.713920E-14    1.721997E-14    5.130986E-15    1.512578E-15    4.415935E-16    1.280643E-16    3.740081E-17    1.177077E-17    5.112011E-18    4.126754E-18    5.006069E-18    6.666161E-18    8.811902E-18    1.138507E-17    1.439845E-17    1.787301E-17    2.180091E-17    2.611236E-17    3.063177E-17    3.506825E-17    3.905974E-17    4.224891E-17    4.435619E-17    4.522663E-17    4.484432E-17    4.331997E-17    4.086147E-17    3.773782E-17    3.424512E-17    3.068030E-17    2.729101E-17    2.408586E-17    2.096451E-17    1.787221E-17    1.484958E-17    1.199992E-17    9.433473E-18    7.227277E-18    5.410725E-18    3.970674E-18    2.865524E-18    2.040117E-18    1.437263E-18    1.004831E-18    6.990425E-19    4.851794E-19    3.368402E-19    2.345686E-19    1.643725E-19    1.164248E-19    8.404502E-20    6.285739E-20    5.019646E-20    4.189480E-20    3.533610E-20    2.960682E-20    2.465918E-20    2.083593E-20    2.288390E-20    1.417723E-19    1.991408E-18    4.833031E-18    7.236459E-18    8.451984E-18    8.502903E-18    7.782460E-18    6.713068E-18    5.596932E-18    4.599499E-18    3.786741E-18    3.169294E-18    2.736693E-18    2.482477E-18    2.434038E-18    2.723162E-18    3.197814E-18    3.532499E-18    3.763900E-18    4.063109E-18    5.312711E-18    7.232916E-17    6.227912E-15    5.475715E-13    4.077975E-11    1.964965E-09    2.349084E-08    1.123534E-07    2.810615E-07    4.277204E-07    4.244313E-07    3.460061E-07    2.530523E-07    1.720818E-07    1.108211E-07    6.840059E-08    4.075580E-08    2.353885E-08    1.323484E-08    7.272092E-09    3.917797E-09    2.075429E-09    1.083861E-09    5.593984E-10    2.861306E-10    1.456313E-10    7.378280E-11    3.694011E-11    1.830933E-11    8.999628E-12    4.394024E-12    2.134539E-12    1.033592E-12    5.000335E-13    2.424939E-13    1.185771E-13    5.923266E-14    2.949252E-14    1.354204E-14    6.215473E-15    2.855691E-15    1.315547E-15    6.089477E-16    2.840865E-16    1.342139E-16    6.476265E-17    3.250478E-17    1.785471E-17    1.785471E-17     0.00000         0.00000         0.00000         0.00000         0.00000         0.00000         0.00000         0.00000         0.00000         0.00000         0.00000         0.00000         0.00000         0.00000         0.00000         0.00000         0.00000         0.00000         0.00000         0.00000         0.00000         0.00000         0.00000         0.00000         0.00000         0.00000         0.00000         0.00000         0.00000         0.00000         0.00000         0.00000         0.00000         0.00000         0.00000         0.00000         0.00000         0.00000         0.00000         0.00000         0.00000         0.00000         0.00000         0.00000         0.00000         0.00000         0.00000         0.00000         0.00000         0.00000         0.00000         0.00000         0.00000         0.00000         0.00000         0.00000         0.00000         0.00000         0.00000         0.00000         0.00000         0.00000         0.00000         0.00000         0.00000         0.00000         0.00000         0.00000         0.00000         0.00000         0.00000         0.00000         0.00000         0.00000         0.00000         0.00000         0.00000         0.00000         0.00000         0.00000         0.00000         0.00000         0.00000         0.00000         0.00000         0.00000         0.00000         0.00000         0.00000         0.00000         0.00000         0.00000         0.00000         0.00000         0.00000         0.00000         0.00000         0.00000         0.00000         0.00000         0.00000         0.00000         0.00000         0.00000         0.00000         0.00000         0.00000         0.00000         0.00000         0.00000         0.00000         0.00000         0.00000         0.00000         0.00000         0.00000         0.00000         0.00000         0.00000         0.00000    
1
  CONCENTRATION IN LAYER  58 AT END OF TIME STEP  73 IN STRESS PERIOD    1
  ---------------------------------------------------------------------------

 ........................................................................................................................................................................................................................................................................................................................................................................................................................................................................................................................................................................................................................................................................................................................................................................................................................................................................................................................................................................................................................................
   1      0.00000         0.00000         0.00000         0.00000         0.00000         0.00000         0.00000        1.303211-305    2.295975-302    3.978976-299    6.877353-296    1.185514-292    2.038046-289    3.494053-286    5.973649-283    1.018429-279    1.731365-276    2.934938-273    4.960751-270    8.360248-267    1.404751-263    2.353273-260    3.930273-257    6.543872-254    1.086157-250    1.797129-247    2.964003-244    4.872749-241    7.984511-238    1.304020-234    2.122584-231    3.443279-228    5.566587-225    8.968040-222    1.439727-218    2.303131-215    3.671098-212    5.830342-209    9.225620-206    1.454398-202    2.284230-199    3.573953-196    5.570496-193    8.648867-190    1.337610-186    2.060585-183    3.161759-180    4.832048-177    7.355068-174    1.115026-170    1.683518-167    2.531498-164    3.791054-161    5.654080-158    8.398142-155    1.242299-151    1.830190-148    2.685357-145    3.924245-142    5.711830-139    8.280953-136    1.195906-132    1.720509-129    2.466019-126    3.521749-123    5.011778-120    7.108078-117    1.004850-113    1.416145-110    1.989967-107    2.788657-104    3.897973-101    5.435779E-98    7.563926E-95    1.050441E-91    1.456124E-88    2.014961E-85    2.783423E-82    3.837798E-79    5.280045E-76    7.244162E-73    9.901575E-70    1.346219E-66    1.816424E-63    2.424044E-60    3.184112E-57    4.088977E-54    5.085643E-51    6.048241E-48    6.760727E-45    6.942081E-42    6.352357E-39    4.975170E-36    3.159338E-33    1.513221E-30    5.020168E-28    1.099733E-25    1.699527E-23    1.655720E-21    1.234137E-19    6.364670E-18    2.417558E-16    7.016666E-15    1.594363E-13    2.884690E-12    4.207105E-11    4.991030E-10    4.849900E-09    3.881435E-08    2.570103E-07    1.414036E-06    6.509929E-06    2.577638E-05    8.514784E-05    2.421970E-04    5.827492E-04    1.191604E-03    2.067330E-03    3.018273E-03    3.644087E-03    3.772398E-03    3.466376E-03    2.893518E-03    2.226933E-03    1.595677E-03    1.071733E-03    6.781829E-04    4.059903E-04    2.307449E-04    1.249045E-04    6.458478E-05    3.198781E-05    1.521494E-05    6.967154E-06    3.078569E-06    1.315533E-06    5.447645E-07    2.190323E-07    8.566129E-08    3.264148E-08    1.213796E-08    4.411107E-09    1.568791E-09    5.466977E-10    1.868975E-10    6.274905E-11    2.071084E-11    6.726412E-12    2.151509E-12    6.783114E-13    2.109447E-13    6.475389E-14    1.963380E-14    5.883668E-15    1.743592E-15    5.112475E-16    1.484082E-16    4.268815E-17    1.219893E-17    3.506620E-18    1.079127E-18    4.476791E-19    3.389395E-19    3.933646E-19    5.108456E-19    6.649696E-19    8.503565E-19    1.067071E-18    1.315080E-18    1.591206E-18    1.886218E-18    2.183372E-18    2.459966E-18    2.691519E-18    2.856793E-18    2.941795E-18    2.941785E-18    2.861217E-18    2.712125E-18    2.511675E-18    2.279599E-18    2.036010E-18    1.798606E-18    1.574796E-18    1.363389E-18    1.161284E-18    9.682085E-19    7.873965E-19    6.237064E-19    4.813537E-19    3.625180E-19    2.670572E-19    1.929766E-19    1.371924E-19    9.624860E-20    6.683293E-20    4.606522E-20    3.160558E-20    2.164573E-20    1.484035E-20    1.021753E-20    7.092615E-21    4.996062E-21    3.615446E-21    2.751683E-21    2.203727E-21    1.818711E-21    1.514500E-21    1.261366E-21    1.062305E-21    1.115803E-21    5.599657E-21    6.695253E-20    1.802770E-19    2.979792E-19    3.791557E-19    4.102136E-19    3.990969E-19    3.621932E-19    3.149252E-19    2.679751E-19    2.272221E-19    1.951888E-19    1.727136E-19    1.605109E-19    1.612483E-19    1.843126E-19    2.285004E-19    2.777446E-19    3.297429E-19    4.013568E-19    9.009788E-19    3.502275E-17    2.844039E-15    2.130563E-13    1.302503E-11    5.192196E-10    6.898097E-09    3.791123E-08    1.062622E-07    1.752943E-07    1.881123E-07    1.614124E-07    1.217845E-07    8.441876E-08    5.501521E-08    3.418227E-08    2.043395E-08    1.182380E-08    6.653813E-09    3.655681E-09    1.967138E-09    1.039511E-09    5.406827E-10    2.773635E-10    1.405957E-10    7.056508E-11    3.512965E-11    1.734709E-11    8.499637E-12    4.134623E-12    1.998098E-12    9.599652E-13    4.588804E-13    2.184524E-13    1.036939E-13    4.916790E-14    2.336967E-14    1.115589E-14    5.282098E-15    2.484565E-15    1.162719E-15    5.421216E-16    2.522138E-16    1.172886E-16    5.464732E-17    2.560060E-17    1.213838E-17    5.916565E-18    2.868371E-18    1.272990E-18    5.661152E-19    2.526659E-19    1.133826E-19    5.128482E-20    2.346988E-20    1.093595E-20    5.251920E-21    2.677701E-21    1.605915E-21    1.605915E-21     0.00000         0.00000         0.00000         0.00000         0.00000         0.00000         0.00000         0.00000         0.00000         0.00000         0.00000         0.00000         0.00000         0.00000         0.00000         0.00000         0.00000         0.00000         0.00000         0.00000         0.00000         0.00000         0.00000         0.00000         0.00000         0.00000         0.00000         0.00000         0.00000         0.00000         0.00000         0.00000         0.00000         0.00000         0.00000         0.00000         0.00000         0.00000         0.00000         0.00000         0.00000         0.00000         0.00000         0.00000         0.00000         0.00000         0.00000         0.00000         0.00000         0.00000         0.00000         0.00000         0.00000         0.00000         0.00000         0.00000         0.00000         0.00000         0.00000         0.00000         0.00000         0.00000         0.00000         0.00000         0.00000         0.00000         0.00000         0.00000         0.00000         0.00000         0.00000         0.00000         0.00000         0.00000         0.00000         0.00000         0.00000         0.00000         0.00000         0.00000         0.00000         0.00000         0.00000         0.00000         0.00000         0.00000         0.00000         0.00000         0.00000         0.00000         0.00000         0.00000         0.00000         0.00000         0.00000         0.00000         0.00000         0.00000         0.00000         0.00000         0.00000         0.00000         0.00000         0.00000         0.00000         0.00000         0.00000         0.00000         0.00000    
1
  CONCENTRATION IN LAYER  59 AT END OF TIME STEP  73 IN STRESS PERIOD    1
  ---------------------------------------------------------------------------

 ........................................................................................................................................................................................................................................................................................................................................................................................................................................................................................................................................................................................................................................................................................................................................................................................................................................................................................................................................................................................................................................
   1      0.00000         0.00000         0.00000         0.00000         0.00000         0.00000         0.00000        1.280196-306    2.545586-303    4.421296-300    7.658615-297    1.323128-293    2.279769-290    3.917450-287    6.713138-284    1.147211-280    1.954981-277    3.322069-274    5.628949-271    9.510064-268    1.601998-264    2.690591-261    4.505310-258    7.521027-255    1.251667-251    2.076554-248    3.434186-245    5.661265-242    9.302400-239    1.523530-235    2.486933-232    4.045908-229    6.559776-226    1.059900-222    1.706574-219    2.738116-216    4.377498-213    6.973156-210    1.106734-206    1.750046-203    2.756955-200    4.326785-197    6.764545-194    1.053494-190    1.634285-187    2.525278-184    3.886511-181    5.957502-178    9.095090-175    1.382847-171    2.093885-168    3.157408-165    4.741299-162    7.089954-159    1.055751-155    1.565473-152    2.311491-149    3.398598-146    4.975871-143    7.254433-140    1.053196-136    1.522634-133    2.192171-130    3.143121-127    4.488220-124    6.383143-121    9.042039-118    1.275838-114    1.793284-111    2.511046-108    3.502980-105    4.868772-102    6.742384E-99    9.302954E-96    1.278861E-92    1.751358E-89    2.388851E-86    3.244315E-83    4.384861E-80    5.893313E-77    7.867922E-74    1.041805E-70    1.365221E-67    1.765309E-64    2.243286E-61    2.786289E-58    3.358001E-55    3.889189E-52    4.274295E-49    4.384751E-46    4.110066E-43    3.424810E-40    2.448337E-37    1.434055E-34    6.492061E-32    2.128358E-29    4.855969E-27    7.884706E-25    8.466562E-23    6.924571E-21    3.979743E-19    1.700761E-17    5.687483E-16    1.489412E-14    3.064271E-13    5.033667E-12    6.678057E-11    7.221188E-10    6.479848E-09    4.833415E-08    2.978184E-07    1.526847E-06    6.670680E-06    2.411834E-05    7.424346E-05    1.912728E-04    4.140017E-04    7.519162E-04    1.138169E-03    1.416491E-03    1.499673E-03    1.397943E-03    1.175552E-03    9.063792E-04    6.478906E-04    4.327669E-04    2.717516E-04    1.611938E-04    9.068807E-05    4.856569E-05    2.483628E-05    1.216484E-05    5.722439E-06    2.591921E-06    1.133096E-06    4.791657E-07    1.964199E-07    7.820083E-08    3.029360E-08    1.143765E-08    4.215519E-09    1.518889E-09    5.357347E-10    1.852115E-10    6.283279E-11    2.093992E-11    6.862298E-12    2.213474E-12    7.033396E-13    2.203382E-13    6.810395E-14    2.078326E-14    6.266047E-15    1.867552E-15    5.505465E-16    1.606145E-16    4.639406E-17    1.327561E-17    3.766222E-18    1.061872E-18    3.010326E-19    9.093616E-20    3.630239E-20    2.595508E-20    2.892076E-20    3.670745E-20    4.709689E-20    5.959287E-20    7.409632E-20    9.045214E-20    1.082060E-19    1.264696E-19    1.439484E-19    1.591415E-19    1.706359E-19    1.773853E-19    1.788876E-19    1.752319E-19    1.670295E-19    1.552715E-19    1.411603E-19    1.259541E-19    1.108030E-19    9.641600E-20    8.299973E-20    7.048697E-20    5.880524E-20    4.800802E-20    3.825624E-20    2.972861E-20    2.253870E-20    1.669601E-20    1.211084E-20    8.624643E-21    6.046962E-21    4.186255E-21    2.869962E-21    1.954123E-21    1.325304E-21    8.979522E-22    6.097279E-22    4.164625E-22    2.876679E-22    2.028566E-22    1.486954E-22    1.144527E-22    9.180241E-23    7.541260E-23    6.258965E-23    5.262903E-23    5.318163E-23    2.167795E-22    2.253805E-21    6.628917E-21    1.200009E-20    1.658470E-20    1.930985E-20    2.004160E-20    1.924988E-20    1.759023E-20    1.563655E-20    1.378598E-20    1.227382E-20    1.123724E-20    1.080192E-20    1.122598E-20    1.325094E-20    1.736669E-20    2.311910E-20    3.055788E-20    4.333694E-20    2.471449E-19    1.512703E-17    1.114440E-15    7.273295E-14    3.797265E-12    1.308588E-10    1.834114E-09    1.112037E-08    3.419376E-08    6.109143E-08    7.125254E-08    6.510085E-08    5.130896E-08    3.665868E-08    2.440605E-08    1.539679E-08    9.305307E-09    5.428207E-09    3.073423E-09    1.696310E-09    9.158107E-10    4.850075E-10    2.525529E-10    1.295636E-10    6.559902E-11    3.283124E-11    1.626594E-11    7.985368E-12    3.887684E-12    1.878419E-12    9.013639E-13    4.298287E-13    2.038203E-13    9.616673E-14    4.517679E-14    2.114784E-14    9.876149E-15    4.607782E-15    2.145695E-15    9.968530E-16    4.619947E-16    2.136131E-16    9.856350E-17    4.540357E-17    2.089491E-17    9.616768E-18    4.434812E-18    2.057607E-18    9.618877E-19    4.459392E-19    2.054687E-19    9.425954E-20    4.312794E-20    1.971657E-20    9.025784E-21    4.149754E-21    1.925717E-21    9.115801E-22    4.549302E-22    2.035130E-22    8.906923E-23    3.915232E-23    1.731936E-23    7.729370E-24    3.493050E-24    1.608350E-24    7.633794E-25    3.839379E-25    2.241846E-25    2.241846E-25     0.00000         0.00000         0.00000         0.00000         0.00000         0.00000         0.00000         0.00000         0.00000         0.00000         0.00000         0.00000         0.00000         0.00000         0.00000         0.00000         0.00000         0.00000         0.00000         0.00000         0.00000         0.00000         0.00000         0.00000         0.00000         0.00000         0.00000         0.00000         0.00000         0.00000         0.00000         0.00000         0.00000         0.00000         0.00000         0.00000         0.00000         0.00000         0.00000         0.00000         0.00000         0.00000         0.00000         0.00000         0.00000         0.00000         0.00000         0.00000         0.00000         0.00000         0.00000         0.00000         0.00000         0.00000         0.00000         0.00000         0.00000         0.00000         0.00000         0.00000         0.00000         0.00000         0.00000         0.00000         0.00000         0.00000         0.00000         0.00000         0.00000         0.00000         0.00000         0.00000         0.00000         0.00000         0.00000         0.00000         0.00000         0.00000         0.00000         0.00000         0.00000         0.00000         0.00000         0.00000         0.00000         0.00000         0.00000         0.00000         0.00000         0.00000         0.00000         0.00000         0.00000         0.00000         0.00000         0.00000         0.00000         0.00000         0.00000    
1
  CONCENTRATION IN LAYER  60 AT END OF TIME STEP  73 IN STRESS PERIOD    1
  ---------------------------------------------------------------------------

 ........................................................................................................................................................................................................................................................................................................................................................................................................................................................................................................................................................................................................................................................................................................................................................................................................................................................................................................................................................................................................................................
   1      0.00000         0.00000         0.00000         0.00000         0.00000         0.00000         0.00000        1.009770-307    2.684380-304    4.674882-301    8.115768-298    1.405253-294    2.426786-291    4.179713-288    7.179357-285    1.229800-281    2.100772-278    3.578527-275    6.078493-272    1.029529-268    1.738672-265    2.927635-262    4.914971-259    8.226472-256    1.372709-252    2.283490-249    3.786678-246    6.259495-243    1.031393-239    1.693930-236    2.772906-233    4.524025-230    7.356079-227    1.192012-223    1.924903-220    3.097503-217    4.966725-214    7.935321-211    1.263209-207    2.003468-204    3.165677-201    4.983193-198    7.814227-195    1.220623-191    1.899218-188    2.943380-185    4.543352-182    6.984673-179    1.069391-175    1.630533-172    2.475752-169    3.743278-166    5.635695-163    8.448460-160    1.261035-156    1.874052-153    2.772861-150    4.084643-147    5.990295-144    8.745817-141    1.271163-137    1.839260-134    2.649220-131    3.798564-128    5.421767-125    7.703273-122    1.089469-118    1.533731-115    2.149138-112    2.997376-109    4.160564-106    5.747224-103    7.899573-100    1.080217E-96    1.469173E-93    1.986740E-90    2.670012E-87    3.563818E-84    4.720412E-81    6.197457E-78    8.053063E-75    1.033606E-71    1.306929E-68    1.622387E-65    1.968374E-62    2.320478E-59    2.638120E-56    2.864634E-53    2.934688E-50    2.792579E-47    2.420202E-44    1.863463E-41    1.235439E-38    6.781207E-36    2.938038E-33    9.545893E-31    2.245391E-28    3.813959E-26    4.465852E-24    3.974995E-22    2.526015E-20    1.204954E-18    4.508250E-17    1.323399E-15    3.058083E-14    5.645811E-13    8.414758E-12    1.021317E-10    1.025796E-09    8.529318E-09    5.831840E-08    3.300452E-07    1.578419E-06    6.203483E-06    2.055149E-05    5.646029E-05    1.290265E-04    2.450470E-04    3.846011E-04    4.936575E-04    5.351811E-04    5.070285E-04    4.304832E-04    3.333186E-04    2.382684E-04    1.586570E-04    9.908470E-05    5.835642E-05    3.256085E-05    1.728023E-05    8.753411E-06    4.245795E-06    1.977679E-06    8.870102E-07    3.840179E-07    1.608495E-07    6.532160E-08    2.577031E-08    9.894719E-09    3.703784E-09    1.353724E-09    4.838280E-10    1.693228E-10    5.809629E-11    1.956564E-11    6.474712E-12    2.107467E-12    6.753315E-13    2.132367E-13    6.639589E-14    2.040216E-14    6.191054E-15    1.856453E-15    5.504170E-16    1.614464E-16    4.687239E-17    1.347621E-17    3.838663E-18    1.083835E-18    3.035558E-19    8.453168E-20    2.366759E-20    7.036924E-21    2.720546E-21    1.851436E-21    1.989418E-21    2.473143E-21    3.129628E-21    3.915841E-21    4.815951E-21    5.806988E-21    6.844730E-21    7.861173E-21    8.772536E-21    9.494511E-21    9.958929E-21    1.012631E-20    9.991299E-21    9.580777E-21    8.946702E-21    8.156298E-21    7.282270E-21    6.393261E-21    5.539286E-21    4.744749E-21    4.014356E-21    3.345153E-21    2.735804E-21    2.189407E-21    1.711406E-21    1.305996E-21    9.735545E-22    7.099884E-22    5.075954E-22    3.566406E-22    2.469237E-22    1.689435E-22    1.145576E-22    7.721283E-23    5.188569E-23    3.487198E-23    2.352479E-23    1.600371E-23    1.106185E-23    7.877377E-24    5.856547E-24    4.555816E-24    3.670917E-24    3.022562E-24    2.535585E-24    2.480547E-24    8.285524E-24    7.580629E-23    2.405211E-22    4.736635E-22    7.088336E-22    8.878864E-22    9.850128E-22    1.005150E-21    9.704319E-22    9.070118E-22    8.374214E-22    7.784548E-22    7.428416E-22    7.437970E-22    8.051234E-22    9.884671E-22    1.370107E-21    1.986971E-21    2.917926E-21    5.338223E-21    8.382236E-20    5.656159E-18    3.777824E-16    2.187614E-14    1.002459E-12    3.076969E-11    4.405654E-10    2.866019E-09    9.520572E-09    1.836110E-08    2.325873E-08    2.275110E-08    1.888435E-08    1.402354E-08    9.610964E-09    6.198166E-09    3.810005E-09    2.252286E-09    1.288800E-09    7.174053E-10    3.899881E-10    2.076840E-10    1.086255E-10    5.591961E-11    2.838483E-11    1.422909E-11    7.053811E-12    3.461831E-12    1.683592E-12    8.120542E-13    3.887598E-13    1.848527E-13    8.735602E-14    4.105229E-14    1.919574E-14    8.936022E-15    4.144111E-15    1.915879E-15    8.832645E-16    4.061670E-16    1.863420E-16    8.531169E-17    3.898508E-17    1.778642E-17    8.104152E-18    3.689175E-18    1.678898E-18    7.647221E-19    3.491290E-19    1.594844E-19    7.283068E-20    3.323505E-20    1.515367E-20    6.904672E-21    3.145251E-21    1.433501E-21    6.546268E-22    3.004225E-22    1.396898E-22    6.477326E-23    2.978671E-23    1.362080E-23    6.207493E-24    2.825582E-24    1.287744E-24    5.894657E-25    2.723785E-25    1.283596E-25    6.355789E-26    2.912087E-26    1.269205E-26    5.563487E-27    2.458212E-27    1.098060E-27    4.980959E-28    2.312300E-28    1.115969E-28    5.835491E-29    5.835491E-29     0.00000         0.00000         0.00000         0.00000         0.00000         0.00000         0.00000         0.00000         0.00000         0.00000         0.00000         0.00000         0.00000         0.00000         0.00000         0.00000         0.00000         0.00000         0.00000         0.00000         0.00000         0.00000         0.00000         0.00000         0.00000         0.00000         0.00000         0.00000         0.00000         0.00000         0.00000         0.00000         0.00000         0.00000         0.00000         0.00000         0.00000         0.00000         0.00000         0.00000         0.00000         0.00000         0.00000         0.00000         0.00000         0.00000         0.00000         0.00000         0.00000         0.00000         0.00000         0.00000         0.00000         0.00000         0.00000         0.00000         0.00000         0.00000         0.00000         0.00000         0.00000         0.00000         0.00000         0.00000         0.00000         0.00000         0.00000         0.00000         0.00000         0.00000         0.00000         0.00000         0.00000         0.00000         0.00000         0.00000         0.00000         0.00000         0.00000         0.00000         0.00000         0.00000         0.00000         0.00000         0.00000         0.00000         0.00000         0.00000         0.00000         0.00000    
1
  CONCENTRATION IN LAYER  61 AT END OF TIME STEP  73 IN STRESS PERIOD    1
  ---------------------------------------------------------------------------

 ........................................................................................................................................................................................................................................................................................................................................................................................................................................................................................................................................................................................................................................................................................................................................................................................................................................................................................................................................................................................................................................
   1      0.00000         0.00000         0.00000         0.00000         0.00000         0.00000         0.00000         0.00000        2.667165-305    4.713980-302    8.201506-299    1.423238-295    2.463357-292    4.252356-289    7.320987-286    1.256994-282    2.152316-279    3.675133-276    6.257772-273    1.062505-269    1.798833-266    3.036578-263    5.110878-260    8.576454-257    1.434844-253    2.393148-250    3.979104-247    6.595295-244    1.089679-240    1.794571-237    2.945789-234    4.819511-231    7.858607-228    1.277057-224    2.068126-221    3.337537-218    5.367071-215    8.599834-212    1.372978-208    2.183919-205    3.460891-202    5.463814-199    8.592883-196    1.346154-192    2.100590-189    3.264798-186    5.053788-183    7.791138-180    1.196149-176    1.828720-173    2.783965-170    4.219998-167    6.368973-164    9.570011-161    1.431588-157    2.131883-154    3.160277-151    4.663153-148    6.848624-145    1.001087-141    1.456333-138    2.108355-135    3.037343-132    4.353936-129    6.209787-126    8.811356-123    1.243771-119    1.746318-116    2.438584-113    3.386246-110    4.675053-107    6.415708-104    8.749268-101    1.185268E-97    1.594367E-94    2.128361E-91    2.817611E-88    3.695779E-85    4.797599E-82    6.154645E-79    7.788229E-76    9.698572E-73    1.184978E-69    1.415138E-66    1.643956E-63    1.846547E-60    1.990290E-57    2.039113E-54    1.962504E-51    1.748503E-48    1.416252E-45    1.019789E-42    6.350270E-40    3.306474E-37    1.383636E-34    4.463156E-32    1.074507E-29    1.901981E-27    2.403676E-25    2.310733E-23    1.611452E-21    8.514653E-20    3.536908E-18    1.154885E-16    2.973918E-15    6.121167E-14    1.016578E-12    1.373380E-11    1.530963E-10    1.407181E-09    1.059089E-08    6.565928E-08    3.413581E-07    1.449514E-06    5.142548E-06    1.500884E-05    3.612277E-05    7.164453E-05    1.165556E-04    1.543154E-04    1.714483E-04    1.653234E-04    1.419862E-04    1.106382E-04    7.926619E-05    5.273239E-05    3.282281E-05    1.923237E-05    1.066233E-05    5.617215E-06    2.822899E-06    1.357850E-06    6.270836E-07    2.788253E-07    1.196704E-07    4.969523E-08    2.001066E-08    7.828880E-09    2.981509E-09    1.107175E-09    4.015403E-10    1.424336E-10    4.948301E-11    1.685797E-11    5.638516E-12    1.853540E-12    5.994452E-13    1.909008E-13    5.991674E-14    1.854875E-14    5.667958E-15    1.710725E-15    5.103290E-16    1.505542E-16    4.394866E-17    1.270077E-17    3.635401E-18    1.031112E-18    2.899179E-19    8.084515E-20    2.237435E-20    6.159679E-21    1.705225E-21    5.000804E-22    1.883116E-22    1.229936E-22    1.280640E-22    1.562267E-22    1.950211E-22    2.410194E-22    2.925271E-22    3.473358E-22    4.020954E-22    4.524950E-22    4.939515E-22    5.224908E-22    5.355060E-22    5.321774E-22    5.134908E-22    4.819232E-22    4.409336E-22    3.944103E-22    3.461385E-22    2.991431E-22    2.552512E-22    2.151657E-22    1.789204E-22    1.463678E-22    1.174532E-22    9.224153E-23    7.080917E-23    5.312312E-23    3.898036E-23    2.801753E-23    1.976592E-23    1.371970E-23    9.394071E-24    6.362876E-24    4.275652E-24    2.858955E-24    1.908287E-24    1.275912E-24    8.581903E-25    5.843100E-25    4.071273E-25    2.941756E-25    2.222274E-25    1.750814E-25    1.424122E-25    1.189270E-25    1.132314E-25    3.139526E-25    2.541862E-24    8.608780E-24    1.833584E-23    2.962158E-23    3.988067E-23    4.732977E-23    5.142984E-23    5.264686E-23    5.196934E-23    5.050555E-23    4.928649E-23    4.928384E-23    5.166282E-23    5.852052E-23    7.507961E-23    1.100342E-22    1.729287E-22    2.831307E-22    8.315847E-22    2.783661E-20    1.834380E-18    1.118000E-16    5.829163E-15    2.391761E-13    6.674377E-12    9.572489E-11    6.552463E-10    2.324269E-09    4.816451E-09    6.603883E-09    6.925635E-09    6.081821E-09    4.721359E-09    3.350479E-09    2.221001E-09    1.395515E-09    8.396920E-10    4.874873E-10    2.746183E-10    1.507775E-10    8.096757E-11    4.264731E-11    2.208509E-11    1.126647E-11    5.671258E-12    2.820893E-12    1.388120E-12    6.764670E-13    3.267677E-13    1.565867E-13    7.449176E-14    3.520335E-14    1.653642E-14    7.725409E-15    3.591293E-15    1.662066E-15    7.661626E-16    3.519118E-16    1.611148E-16    7.354761E-17    3.348663E-17    1.521166E-17    6.896225E-18    3.121068E-18    1.410543E-18    6.368211E-19    2.873471E-19    1.296615E-19    5.851535E-20    2.641128E-20    1.192272E-20    5.383141E-21    2.431022E-21    1.098181E-21    4.963338E-22    2.245198E-22    1.017343E-22    4.626779E-23    2.111065E-23    9.641798E-24    4.403541E-24    2.010299E-24    9.173523E-25    4.185883E-25    1.911424E-25    8.747563E-26    4.024298E-26    1.875962E-26    8.761889E-27    4.051500E-27    1.861373E-27    8.521074E-28    3.897289E-28    1.786193E-28    8.235957E-29    3.845807E-29    1.845686E-29    9.412747E-30    4.103181E-30    1.799772E-30    7.960422E-31    3.560242E-31    1.616802E-31    7.508172E-32    3.615271E-32    1.869373E-32    1.740156E-32    1.740156E-32     0.00000         0.00000         0.00000         0.00000         0.00000         0.00000         0.00000         0.00000         0.00000         0.00000         0.00000         0.00000         0.00000         0.00000         0.00000         0.00000         0.00000         0.00000         0.00000         0.00000         0.00000         0.00000         0.00000         0.00000         0.00000         0.00000         0.00000         0.00000         0.00000         0.00000         0.00000         0.00000         0.00000         0.00000         0.00000         0.00000         0.00000         0.00000         0.00000         0.00000         0.00000         0.00000         0.00000         0.00000         0.00000         0.00000         0.00000         0.00000         0.00000         0.00000         0.00000         0.00000         0.00000         0.00000         0.00000         0.00000         0.00000         0.00000         0.00000         0.00000         0.00000         0.00000         0.00000         0.00000         0.00000         0.00000         0.00000         0.00000         0.00000         0.00000         0.00000         0.00000         0.00000         0.00000         0.00000         0.00000         0.00000         0.00000         0.00000         0.00000    
1
  CONCENTRATION IN LAYER  62 AT END OF TIME STEP  73 IN STRESS PERIOD    1
  ---------------------------------------------------------------------------

 ........................................................................................................................................................................................................................................................................................................................................................................................................................................................................................................................................................................................................................................................................................................................................................................................................................................................................................................................................................................................................................................
   1      0.00000         0.00000         0.00000         0.00000         0.00000         0.00000         0.00000         0.00000        2.275167-306    4.528755-303    7.896316-300    1.373228-296    2.381995-293    4.121017-290    7.110814-287    1.223689-283    2.100124-280    3.594398-277    6.134792-274    1.044121-270    1.771998-267    2.998621-264    5.059525-261    8.511600-258    1.427609-254    2.387191-251    3.979487-248    6.613197-245    1.095525-241    1.809010-238    2.977478-235    4.884567-232    7.986449-229    1.301402-225    2.113388-222    3.420076-219    5.515183-216    8.861968-213    1.418810-209    2.263184-206    3.596615-203    5.694073-200    8.980146-197    1.410752-193    2.207495-190    3.440375-187    5.340019-184    8.254380-181    1.270585-177    1.947483-174    2.972115-171    4.515970-168    6.831257-165    1.028689-161    1.541949-158    2.300524-155    3.416019-152    5.047964-149    7.422977-146    1.086094-142    1.581043-139    2.289619-136    3.298216-133    4.725415-130    6.732700-127    9.538148-124    1.343363-120    1.880598-117    2.616245-114    3.616030-111    4.963960-108    6.765737-105    9.151872-102    1.227985E-98    1.633417E-95    2.152268E-92    2.806676E-89    3.618210E-86    4.604643E-83    5.774994E-80    7.122562E-77    8.616011E-74    1.018935E-70    1.173298E-67    1.308982E-64    1.406255E-61    1.443899E-58    1.403957E-55    1.278305E-52    1.075056E-49    8.213208E-47    5.586047E-44    3.300688E-41    1.645768E-38    6.696665E-36    2.147080E-33    5.264768E-31    9.677049E-29    1.307394E-26    1.348011E-24    1.024274E-22    5.950685E-21    2.724316E-19    9.822985E-18    2.798224E-16    6.373797E-15    1.170724E-13    1.747263E-12    2.145477E-11    2.163833E-10    1.779962E-09    1.200726E-08    6.745079E-08    3.077974E-07    1.164266E-06    3.597406E-06    9.096455E-06    1.881418E-05    3.170814E-05    4.329461E-05    4.931934E-05    4.845813E-05    4.216371E-05    3.312429E-05    2.383193E-05    1.587142E-05    9.865553E-06    5.762029E-06    3.179671E-06    1.665672E-06    8.317221E-07    3.973046E-07    1.821528E-07    8.038778E-08    3.424090E-08    1.411110E-08    5.639087E-09    2.189682E-09    8.277498E-10    3.051543E-10    1.098854E-10    3.870825E-11    1.335687E-11    4.520557E-12    1.502352E-12    4.908089E-13    1.577783E-13    4.995472E-14    1.559091E-14    4.800372E-15    1.459168E-15    4.381854E-16    1.300787E-16    3.819480E-17    1.109912E-17    3.193587E-18    9.102890E-19    2.571467E-19    7.202152E-20    2.000754E-20    5.515154E-21    1.509571E-21    4.112146E-22    1.126727E-22    3.265297E-23    1.204055E-23    7.610370E-24    7.715962E-24    9.250312E-24    1.138612E-23    1.387424E-23    1.657330E-23    1.931960E-23    2.190512E-23    2.410003E-23    2.569354E-23    2.653413E-23    2.655599E-23    2.578568E-23    2.433057E-23    2.235491E-23    2.005162E-23    1.761433E-23    1.520738E-23    1.294283E-23    1.087657E-23    9.022947E-24    7.376374E-24    5.927902E-24    4.671868E-24    3.604718E-24    2.720839E-24    2.009296E-24    1.453109E-24    1.030717E-24    7.185290E-25    4.934398E-25    3.346854E-25    2.248325E-25    1.500301E-25    9.975834E-26    6.632020E-26    4.425828E-26    2.980841E-26    2.044025E-26    1.444337E-26    1.063224E-26    8.184470E-27    6.555943E-27    5.435272E-27    5.055728E-27    1.181719E-26    8.476464E-26    3.035912E-25    6.957272E-25    1.209753E-24    1.748318E-24    2.219701E-24    2.571476E-24    2.797076E-24    2.924756E-24    3.002395E-24    3.087481E-24    3.247408E-24    3.576425E-24    4.252579E-24    5.718102E-24    8.854410E-24    1.501287E-23    2.805248E-23    1.685714E-22    8.342457E-21    5.196603E-19    2.911539E-17    1.383212E-15    5.158952E-14    1.328082E-12    1.885737E-11    1.339450E-10    5.027125E-10    1.113668E-09    1.645256E-09    1.848006E-09    1.720230E-09    1.400988E-09    1.033756E-09    7.073805E-10    4.561684E-10    2.804270E-10    1.657333E-10    9.477182E-11    5.269754E-11    2.860607E-11    1.520785E-11    7.938776E-12    4.078100E-12    2.065240E-12    1.032661E-12    5.104881E-13    2.497698E-13    1.210723E-13    5.819352E-14    2.775633E-14    1.314635E-14    6.186901E-15    2.894746E-15    1.347227E-15    6.239786E-16    2.877280E-16    1.321416E-16    6.046303E-17    2.757241E-17    1.253520E-17    5.683196E-18    2.570328E-18    1.159967E-18    5.225056E-19    2.349926E-19    1.055535E-19    4.736810E-20    2.124187E-20    9.520930E-21    4.266106E-21    1.911317E-21    8.563722E-22    3.837943E-22    1.720768E-22    7.720285E-23    3.467167E-23    1.559553E-23    7.028985E-24    3.173719E-24    1.435243E-24    6.499469E-25    2.946887E-25    1.337688E-25    6.079704E-26    2.767442E-26    1.262660E-26    5.786335E-27    2.663882E-27    1.228177E-27    5.663042E-28    2.610145E-28    1.202607E-28    5.541796E-29    2.556929E-29    1.183699E-29    5.524212E-30    2.632151E-30    1.236680E-30    5.758651E-31    2.667478E-31    1.233045E-31    5.706515E-32    2.654816E-32    1.249436E-32    6.029538E-33    3.099492E-33    1.404720E-33    6.225272E-34    2.784919E-34    1.261730E-34    5.817688E-35    2.753461E-35    1.361661E-35    7.383850E-36    7.383850E-36     0.00000         0.00000         0.00000         0.00000         0.00000         0.00000         0.00000         0.00000         0.00000         0.00000         0.00000         0.00000         0.00000         0.00000         0.00000         0.00000         0.00000         0.00000         0.00000         0.00000         0.00000         0.00000         0.00000         0.00000         0.00000         0.00000         0.00000         0.00000         0.00000         0.00000         0.00000         0.00000         0.00000         0.00000         0.00000         0.00000         0.00000         0.00000         0.00000         0.00000         0.00000         0.00000         0.00000         0.00000         0.00000         0.00000         0.00000         0.00000         0.00000         0.00000         0.00000         0.00000         0.00000         0.00000         0.00000         0.00000         0.00000         0.00000         0.00000         0.00000         0.00000         0.00000         0.00000         0.00000         0.00000         0.00000         0.00000         0.00000         0.00000         0.00000         0.00000         0.00000    
1
  CONCENTRATION IN LAYER  63 AT END OF TIME STEP  73 IN STRESS PERIOD    1
  ---------------------------------------------------------------------------

 ........................................................................................................................................................................................................................................................................................................................................................................................................................................................................................................................................................................................................................................................................................................................................................................................................................................................................................................................................................................................................................................
   1      0.00000         0.00000         0.00000         0.00000         0.00000         0.00000         0.00000         0.00000        1.552653-307    4.132716-304    7.223714-301    1.258877-297    2.188260-294    3.793963-291    6.560717-288    1.131512-284    1.946264-281    3.338600-278    5.711259-275    9.742912-272    1.657370-268    2.811306-265    4.754867-262    8.018508-259    1.348208-255    2.260013-252    3.776924-249    6.292462-246    1.045056-242    1.730120-239    2.855034-236    4.695967-233    7.698342-230    1.257787-226    2.048016-223    3.323183-220    5.373381-217    8.657464-214    1.389825-210    2.222959-207    3.542260-204    5.623176-201    8.892200-198    1.400672-194    2.197533-191    3.433826-188    5.343622-185    8.280901-182    1.277829-178    1.963311-175    3.003263-172    4.573521-169    6.933063-166    1.046114-162    1.570989-159    2.347827-156    3.491517-153    5.166199-150    7.604803-147    1.113556-143    1.621761-140    2.348829-137    3.382507-134    4.842567-131    6.890984-128    9.744628-125    1.369072-121    1.910510-118    2.647301-115    3.641142-112    4.969095-109    6.725409-106    9.022408-103    1.198963E-99    1.577005E-96    2.051180E-93    2.635345E-90    3.340083E-87    4.169335E-84    5.115930E-81    6.156190E-78    7.244272E-75    8.307620E-72    9.245816E-69    9.935887E-66    1.024730E-62    1.006825E-59    9.340928E-57    8.096343E-54    6.472915E-51    4.700853E-48    3.044958E-45    1.721415E-42    8.280349E-40    3.292874E-37    1.050393E-34    2.614929E-32    4.973928E-30    7.122371E-28    7.826677E-26    6.435850E-24    4.081995E-22    2.045356E-20    8.088204E-19    2.531460E-17    6.337650E-16    1.278714E-14    2.093939E-13    2.813044E-12    3.092635E-11    2.763043E-10    2.016078E-09    1.217186E-08    5.940589E-08    2.386348E-07    7.781533E-07    2.062518E-06    4.442031E-06    7.749489E-06    1.090835E-05    1.274380E-05    1.276871E-05    1.127000E-05    8.940325E-06    6.470582E-06    4.321625E-06    2.687465E-06    1.567322E-06    8.623530E-07    4.499071E-07    2.235497E-07    1.061967E-07    4.839716E-08    2.122444E-08    8.981867E-09    3.677119E-09    1.459687E-09    5.630386E-10    2.114374E-10    7.743924E-11    2.770666E-11    9.698466E-12    3.325967E-12    1.118876E-12    3.696629E-13    1.200771E-13    3.838662E-14    1.208834E-14    3.753114E-15    1.149738E-15    3.477813E-16    1.039461E-16    3.071690E-17    8.979824E-18    2.598450E-18    7.446215E-19    2.114145E-19    5.949780E-20    1.660392E-20    4.596519E-21    1.262742E-21    3.443816E-22    9.330386E-23    2.517007E-23    6.832414E-24    1.960228E-24    7.114537E-25    4.387140E-25    4.351033E-25    5.130479E-25    6.219649E-25    7.455257E-25    8.740579E-25    9.976436E-25    1.105462E-24    1.187202E-24    1.234919E-24    1.244460E-24    1.216019E-24    1.153809E-24    1.065046E-24    9.586269E-25    8.437715E-25    7.286620E-25    6.193406E-25    5.192993E-25    4.298623E-25    3.510243E-25    2.822617E-25    2.230128E-25    1.728020E-25    1.311533E-25    9.746493E-26    7.094583E-26    5.063847E-26    3.549860E-26    2.449077E-26    1.666772E-26    1.121924E-26    7.490106E-27    4.974685E-27    3.297841E-27    2.190377E-27    1.464629E-27    9.931574E-28    6.901749E-28    4.973071E-28    3.745233E-28    2.949372E-28    2.421401E-28    2.205966E-28    4.419998E-28    2.804191E-27    1.052926E-26    2.583937E-26    4.822120E-26    7.468651E-26    1.013878E-25    1.252678E-25    1.449501E-25    1.608358E-25    1.747904E-25    1.898816E-25    2.105999E-25    2.442302E-25    3.054278E-25    4.311417E-25    7.046894E-25    1.286167E-24    2.943580E-24    3.907817E-23    2.214203E-21    1.294973E-19    6.716493E-18    2.936029E-16    1.007176E-14    2.417840E-13    3.376122E-12    2.463499E-11    9.710190E-11    2.287891E-10    3.624022E-10    4.349670E-10    4.292455E-10    3.674086E-10    2.826543E-10    2.002781E-10    1.329760E-10    8.377443E-11    5.054730E-11    2.941858E-11    1.660693E-11    9.132948E-12    4.910517E-12    2.588796E-12    1.341421E-12    6.845424E-13    3.446173E-13    1.713949E-13    8.431727E-14    4.107296E-14    1.982993E-14    9.496626E-15    4.514585E-15    2.131818E-15    1.000509E-15    4.669391E-16    2.168073E-16    1.001952E-16    4.610444E-17    2.113057E-17    9.649213E-18    4.391552E-18    1.992588E-18    9.015992E-19    4.069361E-19    1.832622E-19    8.236987E-20    3.695937E-20    1.655949E-20    7.410142E-21    3.312462E-21    1.479480E-21    6.603797E-22    2.946444E-22    1.314368E-22    5.863350E-23    2.616282E-23    1.167997E-23    5.218483E-24    2.334073E-24    1.045242E-24    4.687031E-25    2.104747E-25    9.465863E-26    4.263961E-26    1.923969E-26    8.697105E-27    3.939651E-27    1.789346E-27    8.152611E-28    3.724742E-28    1.705707E-28    7.826455E-29    3.597189E-29    1.655944E-29    7.635818E-30    3.528646E-30    1.636409E-30    7.642107E-31    3.577975E-31    1.675938E-31    7.846710E-32    3.671629E-32    1.717747E-32    8.043605E-33    3.777678E-33    1.787367E-33    8.623922E-34    4.132917E-34    1.959034E-34    9.228649E-35    4.337564E-35    2.042041E-35    9.676445E-36    4.651990E-36    2.309390E-36    1.208666E-36    5.411523E-37    2.445194E-37    1.118510E-37    5.202569E-38    2.478901E-38    1.227712E-38    6.558868E-39    6.366367E-39    6.366367E-39     0.00000         0.00000         0.00000         0.00000         0.00000         0.00000         0.00000         0.00000         0.00000         0.00000         0.00000         0.00000         0.00000         0.00000         0.00000         0.00000         0.00000         0.00000         0.00000         0.00000         0.00000         0.00000         0.00000         0.00000         0.00000         0.00000         0.00000         0.00000         0.00000         0.00000         0.00000         0.00000         0.00000         0.00000         0.00000         0.00000         0.00000         0.00000         0.00000         0.00000         0.00000         0.00000         0.00000         0.00000         0.00000         0.00000         0.00000         0.00000         0.00000         0.00000         0.00000         0.00000         0.00000         0.00000         0.00000         0.00000         0.00000         0.00000         0.00000         0.00000         0.00000         0.00000         0.00000    
1
  CONCENTRATION IN LAYER  64 AT END OF TIME STEP  73 IN STRESS PERIOD    1
  ---------------------------------------------------------------------------

 ........................................................................................................................................................................................................................................................................................................................................................................................................................................................................................................................................................................................................................................................................................................................................................................................................................................................................................................................................................................................................................................
   1      0.00000         0.00000         0.00000         0.00000         0.00000         0.00000         0.00000         0.00000         0.00000        3.558347-305    6.255915-302    1.092412-298    1.902766-295    3.305792-292    5.728516-289    9.900807-286    1.706657-282    2.933958-279    5.030121-276    8.600116-273    1.466276-269    2.492853-266    4.226011-263    7.143331-260    1.203899-256    2.022930-253    3.388873-250    5.659719-247    9.422819-244    1.563846-240    2.587106-237    4.266005-234    7.011236-231    1.148451-227    1.874790-224    3.049951-221    4.944353-218    7.986905-215    1.285509-211    2.061457-208    3.293433-205    5.241700-202    8.310281-199    1.312353-195    2.064174-192    3.233491-189    5.044218-186    7.835724-183    1.211970-179    1.866360-176    2.861218-173    4.366341-170    6.632131-167    1.002564-163    1.508159-160    2.257395-157    3.361550-154    4.979499-151    7.336417-148    1.074900-144    1.565905-141    2.267763-138    3.264215-135    4.668897-132    6.634363-129    9.363042-126    1.312009-122    1.824785-119    2.518110-116    3.446161-113    4.674940-110    6.282677-107    8.358922-104    1.100153-100    1.431054E-97    1.837777E-94    2.327090E-91    2.901126E-88    3.554525E-85    4.271113E-82    5.020579E-79    5.755982E-76    6.413392E-73    6.915310E-70    7.179436E-67    7.133546E-64    6.735115E-61    5.991229E-58    4.970980E-55    3.801410E-52    2.641839E-49    1.641045E-46    8.936161E-44    4.171182E-41    1.627576E-38    5.170247E-36    1.304054E-33    2.558391E-31    3.853828E-29    4.487832E-27    3.968184E-25    2.729159E-23    1.486840E-21    6.406953E-20    2.189185E-18    5.986029E-17    1.318453E-15    2.354220E-14    3.439189E-13    4.097360E-12    3.953729E-11    3.104001E-10    2.004581E-09    1.041949E-08    4.429247E-08    1.519848E-07    4.213483E-07    9.435296E-07    1.702462E-06    2.469242E-06    2.958490E-06    3.024564E-06    2.710672E-06    2.174163E-06    1.585281E-06    1.063528E-06    6.627378E-07    3.865632E-07    2.123979E-07    1.105281E-07    5.472759E-08    2.588913E-08    1.174272E-08    5.123372E-09    2.156427E-09    8.778920E-10    3.465027E-10    1.328836E-10    4.961293E-11    1.806605E-11    6.426844E-12    2.236971E-12    7.628859E-13    2.552438E-13    8.388079E-14    2.710544E-14    8.621338E-15    2.701601E-15    8.347744E-16    2.545440E-16    7.665160E-17    2.281071E-17    6.712570E-18    1.954448E-18    5.633514E-19    1.608320E-19    4.549940E-20    1.276049E-20    3.549217E-21    9.794107E-22    2.682362E-22    7.293531E-23    1.969656E-23    5.286497E-24    1.413432E-24    3.804631E-25    1.082584E-25    3.886845E-26    2.356500E-26    2.295297E-26    2.662153E-26    3.172900E-26    3.731868E-26    4.283294E-26    4.776764E-26    5.164850E-26    5.409298E-26    5.487478E-26    5.395763E-26    5.148952E-26    4.776408E-26    4.316354E-26    3.809755E-26    3.294325E-26    2.799572E-26    2.344310E-26    1.937292E-26    1.580115E-26    1.270657E-26    1.005657E-26    7.818994E-27    5.963463E-27    4.458046E-27    3.266318E-27    2.346982E-27    1.655862E-27    1.149044E-27    7.858689E-28    5.310081E-28    3.554201E-28    2.363377E-28    1.566237E-28    1.038196E-28    6.913781E-29    4.654539E-29    3.196743E-29    2.265330E-29    1.673529E-29    1.295417E-29    1.051180E-29    9.394416E-30    1.641206E-29    9.179375E-29    3.583133E-28    9.374583E-28    1.872305E-27    3.102310E-27    4.498656E-27    5.926411E-27    7.297595E-27    8.599875E-27    9.906446E-27    1.138525E-26    1.333538E-26    1.630603E-26    2.146863E-26    3.183949E-26    5.487358E-26    1.081870E-25    3.497401E-25    9.003958E-24    5.196957E-22    2.855650E-20    1.379728E-18    5.595228E-17    1.782125E-15    4.022857E-14    5.504485E-13    4.095802E-12    1.685114E-11    4.202207E-11    7.102422E-11    9.081625E-11    9.491649E-11    8.543023E-11    6.862885E-11    5.045922E-11    3.457612E-11    2.237769E-11    1.381761E-11    8.203434E-12    4.711318E-12    2.630113E-12    1.432814E-12    7.641482E-13    4.000252E-13    2.060053E-13    1.045584E-13    5.238588E-14    2.594368E-14    1.271504E-14    6.173251E-15    2.971717E-15    1.419514E-15    6.733084E-16    3.173219E-16    1.486753E-16    6.928606E-17    3.213015E-17    1.483239E-17    6.818611E-18    3.122558E-18    1.424912E-18    6.481195E-19    2.939213E-19    1.329323E-19    5.997404E-20    2.699817E-20    1.212949E-20    5.439771E-21    2.435747E-21    1.089126E-21    4.864062E-22    2.170096E-22    9.673947E-23    4.309845E-23    1.919303E-23    8.545586E-24    3.804972E-24    1.694603E-24    7.550616E-25    3.366443E-25    1.502130E-25    6.709131E-26    3.000022E-26    1.343258E-26    6.023502E-27    2.705666E-27    1.217658E-27    5.491826E-28    2.482914E-28    1.125363E-28    5.113487E-29    2.329347E-29    1.063748E-29    4.869971E-30    2.235162E-30    1.028592E-30    4.747715E-31    2.199845E-31    1.022815E-31    4.769407E-32    2.229315E-32    1.044087E-32    4.898345E-33    2.302012E-33    1.084156E-33    5.123265E-34    2.437475E-34    1.164476E-34    5.567048E-35    2.659952E-35    1.269997E-35    6.062715E-36    2.897768E-36    1.390442E-36    6.738409E-37    3.341083E-37    1.628633E-37    7.861020E-38    3.776224E-38    1.813460E-38    8.749810E-39    4.272645E-39    2.144106E-39    1.167418E-39    5.393841E-40    2.483911E-40    1.159413E-40    5.512752E-41    2.692969E-41    1.375474E-41    7.701539E-42    7.701539E-42     0.00000         0.00000         0.00000         0.00000         0.00000         0.00000         0.00000         0.00000         0.00000         0.00000         0.00000         0.00000         0.00000         0.00000         0.00000         0.00000         0.00000         0.00000         0.00000         0.00000         0.00000         0.00000         0.00000         0.00000         0.00000         0.00000         0.00000         0.00000         0.00000         0.00000         0.00000         0.00000         0.00000         0.00000         0.00000         0.00000         0.00000         0.00000         0.00000         0.00000         0.00000         0.00000         0.00000         0.00000         0.00000         0.00000         0.00000         0.00000         0.00000         0.00000         0.00000         0.00000         0.00000         0.00000         0.00000         0.00000    
1
  CONCENTRATION IN LAYER  65 AT END OF TIME STEP  73 IN STRESS PERIOD    1
  ---------------------------------------------------------------------------

 ........................................................................................................................................................................................................................................................................................................................................................................................................................................................................................................................................................................................................................................................................................................................................................................................................................................................................................................................................................................................................................................
   1      0.00000         0.00000         0.00000         0.00000         0.00000         0.00000         0.00000         0.00000         0.00000        2.584974-306    5.106058-303    8.933776-300    1.559124-296    2.714120-293    4.712659-290    8.161627-287    1.409764-283    2.428622-280    4.172553-277    7.149186-274    1.221542-270    2.081328-267    3.536201-264    5.990740-261    1.011937-257    1.704271-254    2.861655-251    4.790390-248    7.994295-245    1.329919-241    2.205394-238    3.645370-235    6.005791-232    9.861653-229    1.613828-225    2.631899-222    4.277216-219    6.926404-216    1.117591-212    1.796634-209    2.877462-206    4.590963-203    7.296450-200    1.155052-196    1.821129-193    2.859527-190    4.471224-187    6.961444-184    1.079129-180    1.665354-177    2.558320-174    3.911757-171    5.952620-168    9.013872-165    1.358081-161    2.035595-158    3.034901-155    4.500040-152    6.634873-149    9.725520-146    1.416999-142    2.051669-139    2.951355-136    4.216929-133    5.982799-130    8.425658-127    1.177432-123    1.632011-120    2.242665-117    3.053748-114    4.117856-111    5.495193-108    7.251533-105    9.454130-102    1.216485E-98    1.542985E-95    1.926532E-92    2.363951E-89    2.845220E-86    3.351444E-83    3.853369E-80    4.311171E-77    4.676415E-74    4.897038E-71    4.925720E-68    4.731014E-65    4.308979E-62    3.691469E-59    2.946417E-56    2.166831E-53    1.449262E-50    8.683405E-48    4.579895E-45    2.084355E-42    8.005819E-40    2.535025E-37    6.468967E-35    1.304870E-32    2.054541E-30    2.522501E-28    2.384010E-26    1.766539E-24    1.039909E-22    4.853656E-21    1.799836E-19    5.343853E-18    1.277551E-16    2.473432E-15    3.907619E-14    5.018411E-13    5.204111E-12    4.375400E-11    3.009858E-10    1.659869E-09    7.443102E-09    2.680516E-08    7.756877E-08    1.803460E-07    3.362480E-07    5.022106E-07    6.170310E-07    6.438810E-07    5.864018E-07    4.760628E-07    3.501533E-07    2.362911E-07    1.477648E-07    8.632815E-08    4.743679E-08    2.465665E-08    1.218252E-08    5.746202E-09    2.597181E-09    1.128645E-09    4.729897E-10    1.916731E-10    7.529229E-11    2.873339E-11    1.067459E-11    3.867654E-12    1.369028E-12    4.741536E-13    1.609111E-13    5.357733E-14    1.752370E-14    5.636379E-15    1.784621E-15    5.567635E-16    1.712970E-16    5.201507E-17    1.560017E-17    4.624296E-18    1.355663E-18    3.932793E-19    1.129608E-19    3.214030E-20    9.062939E-21    2.533803E-21    7.026448E-22    1.933394E-22    5.280538E-23    1.432028E-23    3.857256E-24    1.032324E-24    2.747003E-25    7.285110E-26    1.946426E-26    5.503262E-27    1.964265E-27    1.179281E-27    1.131662E-27    1.290188E-27    1.508605E-27    1.736942E-27    1.947655E-27    2.119017E-27    2.233681E-27    2.280555E-27    2.256324E-27    2.165533E-27    2.019249E-27    1.832796E-27    1.623190E-27    1.406620E-27    1.196342E-27    1.001432E-27    8.267121E-28    6.736379E-28    5.416147E-28    4.291533E-28    3.345730E-28    2.562529E-28    1.926125E-28    1.420192E-28    1.027425E-28    7.298810E-29    5.098449E-29    3.508188E-29    2.382970E-29    1.601815E-29    1.068456E-29    7.093716E-30    4.703892E-30    3.128167E-30    2.097772E-30    1.429821E-30    1.000943E-30    7.278420E-31    5.543827E-31    4.441960E-31    3.898506E-31    6.037227E-31    2.965447E-30    1.193222E-29    3.314052E-29    7.063726E-29    1.249695E-28    1.933303E-28    2.713615E-28    3.554958E-28    4.449963E-28    5.435847E-28    6.613453E-28    8.186062E-28    1.056006E-27    1.464251E-27    2.281886E-27    4.143998E-27    8.978285E-27    4.897776E-26    1.921423E-24    1.081504E-22    5.599235E-21    2.534296E-19    9.600822E-18    2.861389E-16    6.114203E-15    8.185013E-14    6.176931E-13    2.639034E-12    6.933400E-12    1.244657E-11    1.689962E-11    1.867453E-11    1.766830E-11    1.483041E-11    1.132913E-11    8.025032E-12    5.345487E-12    3.384260E-12    2.053458E-12    1.201997E-12    6.823358E-13    3.772431E-13    2.038405E-13    1.079602E-13    5.618136E-14    2.878470E-14    1.454535E-14    7.259780E-15    3.583553E-15    1.751366E-15    8.482687E-16    4.075238E-16    1.943398E-16    9.205528E-17    4.333819E-17    2.028880E-17    9.449500E-18    4.380364E-18    2.021736E-18    9.293966E-19    4.256750E-19    1.943049E-19    8.841748E-20    4.011934E-20    1.815671E-20    8.197626E-21    3.693175E-21    1.660576E-21    7.453238E-22    3.339909E-22    1.494523E-22    6.679204E-23    2.981792E-23    1.329962E-23    5.927746E-24    2.640642E-24    1.175926E-24    5.235772E-25    2.331242E-25    1.038175E-25    4.624886E-26    2.061355E-26    9.193995E-27    4.104294E-27    1.834178E-27    8.207334E-28    3.677997E-28    1.651054E-28    7.425720E-29    3.346640E-29    1.511581E-29    6.843295E-30    3.105771E-30    1.413193E-30    6.447916E-31    2.950427E-31    1.354170E-31    6.235702E-32    2.880954E-32    1.335399E-32    6.209817E-33    2.896651E-33    1.355240E-33    6.359262E-34    2.992838E-34    1.413081E-34    6.699037E-35    3.188714E-35    1.522780E-35    7.290617E-36    3.497563E-36    1.680810E-36    8.091957E-37    3.905285E-37    1.892926E-37    9.254571E-38    4.535059E-38    2.221895E-38    1.087573E-38    5.320180E-39    2.604123E-39    1.278636E-39    6.332696E-40    3.221034E-40    1.613961E-40    7.992979E-41    3.936485E-41    1.938109E-41    9.594982E-42    4.818043E-42    2.499679E-42    1.381907E-42    6.469155E-43    3.066510E-43    1.478563E-43    7.303639E-44    3.747020E-44    2.065495E-44    1.830371E-44    1.830371E-44     0.00000         0.00000         0.00000         0.00000         0.00000         0.00000         0.00000         0.00000         0.00000         0.00000         0.00000         0.00000         0.00000         0.00000         0.00000         0.00000         0.00000         0.00000         0.00000         0.00000         0.00000         0.00000         0.00000         0.00000         0.00000         0.00000         0.00000         0.00000         0.00000         0.00000         0.00000         0.00000         0.00000         0.00000         0.00000         0.00000         0.00000         0.00000         0.00000         0.00000         0.00000         0.00000         0.00000         0.00000         0.00000         0.00000         0.00000         0.00000    
1
  CONCENTRATION IN LAYER  66 AT END OF TIME STEP  73 IN STRESS PERIOD    1
  ---------------------------------------------------------------------------

 ........................................................................................................................................................................................................................................................................................................................................................................................................................................................................................................................................................................................................................................................................................................................................................................................................................................................................................................................................................................................................................................
   1      0.00000         0.00000         0.00000         0.00000         0.00000         0.00000         0.00000         0.00000         0.00000        1.465061-307    3.907071-304    6.851456-301    1.197938-297    2.089298-294    3.634682-291    6.306925-288    1.091539-284    1.884152-281    3.243637-278    5.568940-275    9.535001-272    1.628023-268    2.771882-265    4.705944-262    7.966334-259    1.344597-255    2.262711-252    3.796211-249    6.349451-246    1.058684-242    1.759625-239    2.915250-236    4.814059-233    7.923261-230    1.299660-226    2.124534-223    3.460835-220    5.617648-217    9.085674-214    1.464064-210    2.350355-207    3.758772-204    5.987772-201    9.500731-198    1.501363-194    2.362726-191    3.702549-188    5.777052-185    8.973993-182    1.387691-178    2.135885-175    3.271815-172    4.987345-169    7.564152-166    1.141293-162    1.712821-159    2.556409-156    3.793785-153    5.596965-150    8.206846-147    1.195753-143    1.730756-140    2.487925-137    3.550668-134    5.029267-131    7.067329-128    9.848658-125    1.360390-121    1.861583-118    2.522163-115    3.380962-112    4.480732-109    5.865675-106    7.577254-103    9.647874-100    1.209216E-96    1.489596E-93    1.800374E-90    2.130612E-87    2.463039E-84    2.773814E-81    3.033513E-78    3.209794E-75    3.271998E-72    3.197386E-69    2.977951E-66    2.625865E-63    2.175147E-60    1.677490E-57    1.191971E-54    7.710501E-52    4.478092E-49    2.298312E-46    1.023867E-43    3.881517E-41    1.226291E-38    3.162826E-36    6.540483E-34    1.070685E-31    1.379630E-29    1.385899E-27    1.099759E-25    6.954590E-24    3.496112E-22    1.399209E-20    4.486705E-19    1.158167E-17    2.418771E-16    4.111922E-15    5.665614E-14    6.285886E-13    5.636029E-12    4.114346E-11    2.399171E-10    1.131603E-09    4.266875E-09    1.286434E-08    3.101071E-08    5.968847E-08    9.174365E-08    1.155619E-07    1.231163E-07    1.140095E-07    9.376698E-08    6.964628E-08    4.733317E-08    2.974299E-08    1.742799E-08    9.590074E-09    4.985468E-09    2.461107E-09    1.158878E-09    5.225605E-10    2.264344E-10    9.458222E-11    3.819048E-11    1.494437E-11    5.680308E-12    2.101564E-12    7.582519E-13    2.672613E-13    9.217177E-14    3.114785E-14    1.032770E-14    3.363978E-15    1.077615E-15    3.398456E-16    1.056133E-16    3.237075E-17    9.793404E-18    2.926733E-18    8.645661E-19    2.526118E-19    7.304712E-20    2.091615E-20    5.933447E-21    1.668326E-21    4.651477E-22    1.286503E-22    3.531037E-23    9.620918E-24    2.603119E-24    6.996282E-25    1.868383E-25    4.959540E-26    1.309461E-26    3.447373E-27    9.151364E-28    2.576098E-28    9.185629E-29    5.495923E-29    5.207336E-29    5.828937E-29    6.672663E-29    7.505627E-29    8.210047E-29    8.706617E-29    8.944324E-29    8.903048E-29    8.594199E-29    8.056342E-29    7.346872E-29    6.531973E-29    5.676620E-29    4.836046E-29    4.050242E-29    3.342558E-29    2.722094E-29    2.188237E-29    1.735283E-29    1.355770E-29    1.042144E-29    7.871945E-30    5.839049E-30    4.252612E-30    3.042482E-30    2.140421E-30    1.482911E-30    1.013670E-30    6.852015E-31    4.591913E-31    3.059691E-31    2.033722E-31    1.353654E-31    9.067230E-32    6.154440E-32    4.273234E-32    3.069620E-32    2.305247E-32    1.823689E-32    1.573292E-32    2.193596E-32    9.429268E-32    3.876923E-31    1.138272E-30    2.581978E-30    4.867279E-30    8.020735E-30    1.198191E-29    1.668771E-29    2.217943E-29    2.872603E-29    3.699758E-29    4.839810E-29    6.586631E-29    9.616788E-29    1.574389E-28    3.014500E-28    7.511355E-28    7.696988E-27    3.700833E-25    2.001688E-23    9.797413E-22    4.174956E-20    1.486385E-18    4.172298E-17    8.485758E-16    1.110952E-14    8.469110E-14    3.741149E-13    1.031179E-12    1.957731E-12    2.813267E-12    3.280053E-12    3.259099E-12    2.858291E-12    2.270021E-12    1.664002E-12    1.142277E-12    7.425823E-13    4.612000E-13    2.755762E-13    1.593121E-13    8.951687E-14    4.907405E-14    2.633020E-14    1.386292E-14    7.178243E-15    3.662389E-15    1.844146E-15    9.177303E-16    4.519059E-16    2.204199E-16    1.065918E-16    5.114686E-17    2.436955E-17    1.153678E-17    5.429688E-18    2.541768E-18    1.184028E-18    5.490699E-19    2.535664E-19    1.166537E-19    5.347877E-20    2.443788E-20    1.113420E-20    5.059113E-21    2.293023E-21    1.036937E-21    4.679414E-22    2.107678E-22    9.476873E-23    4.254476E-23    1.907296E-23    8.539882E-24    3.819601E-24    1.706819E-24    7.621328E-25    3.401088E-25    1.517110E-25    6.765408E-26    3.016559E-26    1.345037E-26    5.998282E-27    2.675840E-27    1.194286E-27    5.333956E-28    2.384322E-28    1.066934E-28    4.780238E-29    2.144761E-29    9.638225E-30    4.338853E-30    1.956979E-30    8.845224E-31    4.007045E-31    1.819763E-31    8.286331E-32    3.783941E-32    1.733134E-32    7.962941E-33    3.670364E-33    1.697374E-33    7.876147E-34    3.667306E-34    1.713573E-34    8.035405E-35    3.781861E-35    1.786815E-35    8.475439E-36    4.035506E-36    1.928431E-36    9.246789E-37    4.448136E-37    2.146444E-37    1.039081E-37    5.048598E-38    2.464774E-38    1.208134E-38    5.939988E-39    2.927321E-39    1.445347E-39    7.149292E-40    3.544663E-40    1.764629E-40    8.866144E-41    4.469524E-41    2.252753E-41    1.134147E-41    5.705576E-42    2.872460E-42    1.451621E-42    7.414436E-43    3.891535E-43    2.001341E-43    1.018316E-43    5.161252E-44    2.622324E-44    1.346392E-44    7.092047E-45    3.953149E-45    2.014535E-45    9.799872E-46    4.852615E-46    2.465636E-46    1.305448E-46    7.489410E-47    7.489410E-47     0.00000         0.00000         0.00000         0.00000         0.00000         0.00000         0.00000         0.00000         0.00000         0.00000         0.00000         0.00000         0.00000         0.00000         0.00000         0.00000         0.00000         0.00000         0.00000         0.00000         0.00000         0.00000         0.00000         0.00000         0.00000         0.00000         0.00000         0.00000         0.00000         0.00000         0.00000         0.00000         0.00000         0.00000         0.00000         0.00000         0.00000         0.00000         0.00000         0.00000         0.00000         0.00000    
1
  CONCENTRATION IN LAYER  67 AT END OF TIME STEP  73 IN STRESS PERIOD    1
  ---------------------------------------------------------------------------

 ........................................................................................................................................................................................................................................................................................................................................................................................................................................................................................................................................................................................................................................................................................................................................................................................................................................................................................................................................................................................................................................
   1      0.00000         0.00000         0.00000         0.00000         0.00000         0.00000         0.00000         0.00000         0.00000         0.00000        2.758777-305    4.901036-302    8.584253-299    1.499826-295    2.613909-292    4.543980-289    7.878864-286    1.362564-282    2.350177-279    4.042771-276    6.935473-273    1.186520-269    2.024225-266    3.443582-263    5.841330-260    9.879717-257    1.666057-253    2.801099-250    4.695051-247    7.845210-244    1.306773-240    2.169725-237    3.590834-234    5.923095-231    9.737329-228    1.595304-224    2.604549-221    4.237208-218    6.868407-215    1.109254-211    1.784734-208    2.860554-205    4.566947-202    7.262140-199    1.150079-195    1.813736-192    2.848141-189    4.452913-186    6.930651-183    1.073742-179    1.655643-176    2.540487-173    3.878716-170    5.891325-167    8.900620-164    1.337311-160    1.997865-157    2.967090-154    4.379537-151    6.423204-148    9.358037-145    1.353941-141    1.944718-138    2.772051-135    3.919794-132    5.496095-129    7.637738-126    1.051384-122    1.432792-119    1.931693-116    2.574526-113    3.389143-110    4.402476-107    5.636936-104    7.105392-101    8.804735E-98    1.070841E-94    1.275881E-91    1.486108E-88    1.688065E-85    1.864714E-82    1.996755E-79    2.065012E-76    2.053815E-73    1.954880E-70    1.770763E-67    1.516636E-64    1.219170E-61    9.120447E-59    6.287831E-56    3.950649E-53    2.233482E-50    1.119854E-47    4.899604E-45    1.837589E-42    5.797552E-40    1.510141E-37    3.193313E-35    5.411169E-33    7.287773E-31    7.741120E-29    6.541353E-27    4.419574E-25    2.380430E-23    1.022954E-21    3.525022E-20    9.777610E-19    2.192375E-17    3.992447E-16    5.876738E-15    6.947936E-14    6.618628E-13    5.110234E-12    3.141337E-11    1.554462E-10    6.123489E-10    1.920122E-09    4.792790E-09    9.514629E-09    1.504003E-08    1.941683E-08    2.112166E-08    1.989701E-08    1.659027E-08    1.245546E-08    8.534348E-09    5.394946E-09    3.174340E-09    1.751338E-09    9.116889E-10    4.502053E-10    2.118777E-10    9.542179E-11    4.127345E-11    1.720116E-11    6.927334E-12    2.702891E-12    1.024163E-12    3.776730E-13    1.358043E-13    4.770131E-14    1.639337E-14    5.520377E-15    1.823974E-15    5.920462E-16    1.890048E-16    5.940506E-17    1.840023E-17    5.621535E-18    1.695394E-18    5.051207E-19    1.487741E-19    4.334544E-20    1.249966E-20    3.569668E-21    1.010066E-21    2.833131E-22    7.880710E-23    2.174803E-23    5.956507E-24    1.619687E-24    4.373995E-25    1.173448E-25    3.128322E-26    8.289774E-27    2.184264E-27    5.726723E-28    1.497869E-28    3.954776E-29    1.110734E-29    3.975641E-30    2.383448E-30    2.232612E-30    2.450383E-30    2.741248E-30    3.008070E-30    3.206988E-30    3.313892E-30    3.318170E-30    3.221519E-30    3.036298E-30    2.782590E-30    2.484530E-30    2.166553E-30    1.850131E-30    1.551532E-30    1.280969E-30    1.043119E-30    8.385575E-31    6.654270E-31    5.208107E-31    4.015638E-31    3.046592E-31    2.272395E-31    1.665705E-31    1.200133E-31    8.505181E-32    5.935821E-32    4.086294E-32    2.780392E-32    1.874303E-32    1.255195E-32    8.376600E-33    5.590940E-33    3.749112E-33    2.541318E-33    1.756116E-33    1.250540E-33    9.282779E-34    7.256098E-34    6.159404E-34    7.843632E-34    2.943017E-33    1.225107E-32    3.786291E-32    9.114347E-32    1.826736E-31    3.200962E-31    5.082220E-31    7.516830E-31    1.059876E-30    1.454512E-30    1.982147E-30    2.739122E-30    3.930890E-30    6.039969E-30    1.038280E-29    2.103928E-29    6.600595E-29    1.234914E-27    6.381872E-26    3.303361E-24    1.533787E-22    6.181051E-21    2.078910E-19    5.526680E-18    1.074852E-16    1.376646E-15    1.056974E-14    4.809735E-14    1.385536E-13    2.771037E-13    4.200785E-13    5.156121E-13    5.373411E-13    4.921478E-13    4.064001E-13    3.084626E-13    2.184149E-13    1.459566E-13    9.289922E-14    5.673410E-14    3.344367E-14    1.912260E-14    1.064882E-14    5.794880E-15    3.090347E-15    1.618947E-15    8.348491E-16    4.245157E-16    2.131794E-16    1.058596E-16    5.204070E-17    2.535225E-17    1.224983E-17    5.875151E-18    2.798846E-18    1.325173E-18    6.239259E-19    2.922593E-19    1.362591E-19    6.325472E-20    2.924851E-20    1.347528E-20    6.187618E-21    2.832556E-21    1.293040E-21    5.887410E-22    2.674287E-22    1.212129E-22    5.483100E-23    2.475797E-23    1.116057E-23    5.023538E-24    2.258147E-24    1.013865E-24    4.547359E-25    2.037761E-25    9.124834E-26    4.083525E-26    1.826596E-26    8.167787E-27    3.651555E-27    1.632381E-27    7.297879E-28    3.263381E-28    1.459829E-28    6.533853E-29    2.926447E-29    1.311858E-29    5.886775E-30    2.644721E-30    1.189769E-30    5.360411E-31    2.419150E-31    1.093801E-31    4.955750E-32    2.250406E-32    1.024414E-32    4.675507E-33    2.139872E-33    9.822381E-34    4.522533E-34    2.089060E-34    9.682612E-35    4.503737E-35    2.102591E-35    9.853591E-36    4.636010E-36    2.189969E-36    1.038688E-36    4.946366E-37    2.365038E-37    1.135361E-37    5.472281E-38    2.648191E-38    1.286820E-38    6.280180E-39    3.077929E-39    1.514527E-39    7.480249E-40    3.707405E-40    1.843600E-40    9.198426E-41    4.606608E-41    2.318624E-41    1.172201E-41    5.945820E-42    3.023213E-42    1.540084E-42    7.860070E-43    4.021939E-43    2.068076E-43    1.074649E-43    5.595973E-44    2.911634E-44    1.513099E-44    7.861900E-45    4.094780E-45    2.149655E-45    1.151577E-45    6.171047E-46    3.256324E-46    1.707839E-46    8.971981E-47    4.765698E-47    2.605693E-47    1.562578E-47    7.748412E-48    3.905474E-48    2.014019E-48    1.075007E-48    6.097287E-49    3.997651E-49    3.997651E-49     0.00000         0.00000         0.00000         0.00000         0.00000         0.00000         0.00000         0.00000         0.00000         0.00000         0.00000         0.00000         0.00000         0.00000         0.00000         0.00000         0.00000         0.00000         0.00000         0.00000         0.00000         0.00000         0.00000         0.00000         0.00000         0.00000         0.00000         0.00000         0.00000         0.00000         0.00000         0.00000         0.00000         0.00000         0.00000    
1
  CONCENTRATION IN LAYER  68 AT END OF TIME STEP  73 IN STRESS PERIOD    1
  ---------------------------------------------------------------------------

 ........................................................................................................................................................................................................................................................................................................................................................................................................................................................................................................................................................................................................................................................................................................................................................................................................................................................................................................................................................................................................................................
   1      0.00000         0.00000         0.00000         0.00000         0.00000         0.00000         0.00000         0.00000         0.00000         0.00000        1.643277-306    3.250986-303    5.703770-300    9.982119-297    1.742630-293    3.034553-290    5.270794-287    9.131330-284    1.577804-280    2.719049-277    4.673151-274    8.009670-271    1.369035-267    2.333413-264    3.965776-261    6.720559-258    1.135545-254    1.912956-251    3.212827-248    5.379351-245    8.978649-242    1.493853-238    2.477406-235    4.095005-232    6.746119-229    1.107566-225    1.812063-222    2.954176-219    4.798754-216    7.766368-213    1.252193-209    2.011193-206    3.217572-203    5.126912-200    8.135708-197    1.285592-193    2.022708-190    3.168371-187    4.940372-184    7.667402-181    1.184246-177    1.820025-174    2.782823-171    4.232463-168    6.402073-165    9.629024-162    1.439744-158    2.139583-155    3.159398-152    4.634381-149    6.750893-146    9.762709-143    1.401079-139    1.994648-136    2.815733-133    3.939387-130    5.459406-127    7.490032-124    1.016614-120    1.364086-117    1.807931-114    2.364685-111    3.049042-108    3.871171-105    4.833191-102    5.924980E-99    7.119723E-96    8.369992E-93    9.605525E-90    1.073418E-86    1.164758E-83    1.223259E-80    1.238846E-77    1.204784E-74    1.119737E-71    9.891700E-69    8.254214E-66    6.460381E-63    4.704576E-60    3.158525E-57    1.934776E-54    1.068669E-51    5.252438E-49    2.263442E-46    8.415107E-44    2.653510E-41    6.976197E-39    1.505164E-36    2.630721E-34    3.689623E-32    4.124352E-30    3.691876E-28    2.651597E-26    1.522750E-24    6.993053E-23    2.577727E-21    7.649132E-20    1.833514E-18    3.562050E-17    5.579824E-16    7.004490E-15    7.065326E-14    5.752390E-13    3.717510E-12    1.925488E-11    7.908657E-11    2.575075E-10    6.647390E-10    1.359854E-09    2.209197E-09    2.922211E-09    3.245793E-09    3.111456E-09    2.631765E-09    1.998746E-09    1.382031E-09    8.797918E-10    5.203831E-10    2.881825E-10    1.503926E-10    7.437314E-11    3.502161E-11    1.576987E-11    6.815868E-12    2.837037E-12    1.140663E-12    4.441863E-13    1.679350E-13    6.177866E-14    2.215758E-14    7.762101E-15    2.660273E-15    8.933414E-16    2.943410E-16    9.527369E-17    3.033089E-17    9.507072E-18    2.936832E-18    8.948896E-19    2.691992E-19    8.000540E-20    2.350757E-20    6.833090E-21    1.966092E-21    5.602791E-22    1.582115E-22    4.429011E-23    1.229698E-23    3.387557E-24    9.262599E-25    2.514706E-25    6.780927E-26    1.816640E-26    4.836687E-27    1.280094E-27    3.368724E-28    8.817872E-29    2.297512E-29    5.975286E-30    1.570879E-30    4.411902E-31    1.592589E-31    9.609094E-32    8.903943E-32    9.569780E-32    1.044823E-31    1.117531E-31    1.160854E-31    1.168999E-31    1.141431E-31    1.081712E-31    9.963978E-32    8.937424E-32    7.823701E-32    6.700953E-32    5.630717E-32    4.653937E-32    3.791640E-32    3.049064E-32    2.421200E-32    1.897857E-32    1.467176E-32    1.117449E-32    8.377235E-33    6.178151E-33    4.481936E-33    3.199695E-33    2.250031E-33    1.560642E-33    1.069622E-33    7.259570E-34    4.891551E-34    3.281779E-34    2.199808E-34    1.479422E-34    1.003750E-34    6.922707E-35    4.902315E-35    3.606537E-35    2.789262E-35    2.332558E-35    2.748326E-35    8.991200E-35    3.752413E-34    1.215470E-33    3.096092E-33    6.582472E-33    1.224163E-32    2.062371E-32    3.234866E-32    4.833140E-32    7.020824E-32    1.011444E-31    1.475313E-31    2.230788E-31    3.604262E-31    6.502940E-31    1.410027E-30    6.346661E-30    1.884404E-28    9.830822E-27    4.868955E-25    2.151554E-23    8.232941E-22    2.627932E-20    6.648252E-19    1.241360E-17    1.556571E-16    1.201039E-15    5.612182E-15    1.683814E-14    3.534790E-14    5.635714E-14    7.265558E-14    7.929640E-14    7.578542E-14    6.505441E-14    5.113753E-14    3.736910E-14    2.568932E-14    1.677186E-14    1.047926E-14    6.305542E-15    3.672829E-15    2.079843E-15    1.149142E-15    6.213656E-16    3.296616E-16    1.719851E-16    8.839600E-17    4.483322E-17    2.247007E-17    1.114240E-17    5.472541E-18    2.664671E-18    1.287367E-18    6.175656E-19    2.943522E-19    1.394778E-19    6.573842E-20    3.083256E-20    1.439646E-20    6.694531E-21    3.101348E-21    1.431797E-21    6.589253E-22    3.023624E-22    1.383758E-22    6.317259E-23    2.877540E-23    1.308037E-23    5.934732E-24    2.688046E-24    1.215615E-24    5.489663E-25    2.475996E-25    1.115505E-25    5.020772E-26    2.257907E-26    1.014693E-26    4.557335E-27    2.045917E-27    9.181611E-28    4.119617E-28    1.848233E-28    8.292305E-29    3.721094E-29    1.670333E-29    7.501235E-30    3.370707E-30    1.515751E-30    6.822039E-31    3.073558E-31    1.386355E-31    6.261560E-32    2.832293E-32    1.283270E-32    5.825052E-33    2.649486E-33    1.207754E-33    5.518531E-34    2.527954E-34    1.161158E-34    5.348960E-35    2.471643E-35    1.145841E-35    5.330493E-36    2.488812E-36    1.166452E-36    5.488433E-37    2.592881E-37    1.230020E-37    5.859745E-38    2.803645E-38    1.347358E-38    6.504178E-39    3.154133E-39    1.536634E-39    7.520564E-40    3.697384E-40    1.825895E-40    9.056627E-41    4.511708E-41    2.257284E-41    1.134282E-41    5.725938E-42    2.903574E-42    1.478635E-42    7.559438E-43    3.878718E-43    1.996992E-43    1.031778E-43    5.352818E-44    2.792928E-44    1.463756E-44    7.695687E-45    4.055195E-45    2.140974E-45    1.132966E-45    6.019549E-46    3.225025E-46    1.739985E-46    9.388654E-47    5.059489E-47    2.725912E-47    1.472830E-47    8.038046E-48    4.540796E-48    2.501391E-48    1.361502E-48    7.389608E-49    4.035997E-49    2.248990E-49    1.321603E-49    7.486896E-50    3.891556E-50    2.070086E-50    1.141171E-50    6.706906E-51    4.617168E-51    4.617168E-51     0.00000         0.00000         0.00000         0.00000         0.00000         0.00000         0.00000         0.00000         0.00000         0.00000         0.00000         0.00000         0.00000         0.00000         0.00000         0.00000         0.00000         0.00000         0.00000         0.00000         0.00000         0.00000         0.00000         0.00000         0.00000         0.00000         0.00000         0.00000         0.00000    
1
  CONCENTRATION IN LAYER  69 AT END OF TIME STEP  73 IN STRESS PERIOD    1
  ---------------------------------------------------------------------------

 ........................................................................................................................................................................................................................................................................................................................................................................................................................................................................................................................................................................................................................................................................................................................................................................................................................................................................................................................................................................................................................................
   1      0.00000         0.00000         0.00000         0.00000         0.00000         0.00000         0.00000         0.00000         0.00000         0.00000        7.420181-308    1.985206-304    3.492322-301    6.121259-298    1.070283-294    1.866698-291    3.247516-288    5.635279-285    9.753278-282    1.683607-278    2.898476-275    4.976459-272    8.520708-269    1.454849-265    2.477014-262    4.205221-259    7.118354-256    1.201380-252    2.021487-249    3.391013-246    5.670658-243    9.452787-240    1.570669-236    2.601251-233    4.293652-230    7.063027-227    1.157832-223    1.891302-220    3.078259-217    4.991663-214    8.063920-211    1.297690-207    2.080085-204    3.320738-201    5.279445-198    8.357866-195    1.317367-191    2.067137-188    3.228695-185    5.019030-182    7.763957-179    1.194944-175    1.829528-172    2.785974-169    4.218665-166    6.350956-163    9.503153-160    1.413027-156    2.087217-153    3.061877-150    4.459317-147    6.445441-144    9.242067-141    1.314102-137    1.851931-134    2.585396-131    3.573408-128    4.886641-125    6.606919-122    8.824736-119    1.163409-115    1.512376-112    1.936429-109    2.439031-106    3.017872-103    3.662437-100    4.351694E-97    5.052441E-94    5.719048E-91    6.295428E-88    6.719896E-85    6.933147E-82    6.888746E-79    6.564405E-76    5.971241E-73    5.157635E-70    4.204903E-67    3.213990E-64    2.285590E-61    1.499238E-58    8.983315E-56    4.863477E-53    2.350126E-50    9.999794E-48    3.691910E-45    1.164418E-42    3.088369E-40    6.786622E-38    1.219876E-35    1.775777E-33    2.079830E-31    1.962743E-29    1.491601E-27    9.092106E-26    4.442531E-24    1.744317E-22    5.514913E-21    1.407639E-19    2.906558E-18    4.828512E-17    6.415029E-16    6.831010E-15    5.848949E-14    3.964153E-13    2.144640E-12    9.168137E-12    3.095212E-11    8.253894E-11    1.738486E-10    2.900832E-10    3.930037E-10    4.457103E-10    4.349022E-10    3.733446E-10    2.870272E-10    2.004433E-10    1.286178E-10    7.655123E-11    4.259640E-11    2.230854E-11    1.105976E-11    5.216353E-12    2.350924E-12    1.016347E-12    4.229339E-13    1.699288E-13    6.610374E-14    2.495923E-14    9.167700E-15    3.282465E-15    1.147771E-15    3.926071E-16    1.315760E-16    4.326332E-17    1.397477E-17    4.439765E-18    1.388776E-18    4.281432E-19    1.302034E-19    3.909235E-20    1.159654E-20    3.401236E-21    9.869530E-22    2.835084E-22    8.066458E-23    2.274402E-23    6.358025E-24    1.762931E-24    4.850438E-25    1.324708E-25    3.592551E-26    9.677621E-27    2.590280E-27    6.890622E-28    1.822288E-28    4.792147E-29    1.253450E-29    3.262061E-30    8.453311E-31    2.187941E-31    5.734290E-32    1.614428E-32    5.903986E-33    3.597585E-33    3.298277E-33    3.468090E-33    3.692433E-33    3.848279E-33    3.895406E-33    3.824762E-33    3.644644E-33    3.374807E-33    3.041704E-33    2.673927E-33    2.298157E-33    1.936134E-33    1.603043E-33    1.307390E-33    1.052080E-33    8.361132E-34    6.562901E-34    5.085263E-34    3.886390E-34    2.926930E-34    2.170835E-34    1.585159E-34    1.139818E-34    8.076215E-35    5.645242E-35    3.898867E-35    2.665802E-35    1.808720E-35    1.221134E-35    8.230086E-36    5.558910E-36    3.781810E-36    2.609111E-36    1.842313E-36    1.346737E-36    1.032260E-36    8.516505E-37    9.392195E-37    2.680916E-36    1.110067E-35    3.751496E-35    1.008219E-34    2.268392E-34    4.468025E-34    7.972654E-34    1.324011E-33    2.093060E-33    3.214135E-33    4.889129E-33    7.518901E-33    1.196615E-32    2.030840E-32    3.846066E-32    9.156385E-32    6.673713E-31    2.636427E-29    1.351752E-27    6.414233E-26    2.705776E-24    9.866825E-23    3.001142E-21    7.255376E-20    1.305188E-18    1.603886E-17    1.241671E-16    5.941854E-16    1.850958E-15    4.065289E-15    6.797106E-15    9.183118E-15    1.047937E-14    1.044043E-14    9.311730E-15    7.580130E-15    5.718113E-15    4.045824E-15    2.711241E-15    1.734523E-15    1.066288E-15    6.332844E-16    3.650183E-16    2.049613E-16    1.124777E-16    6.049050E-17    3.195587E-17    1.661619E-17    8.518929E-18    4.312871E-18    2.158972E-18    1.069856E-18    5.253394E-19    2.558444E-19    1.236726E-19    5.937918E-20    2.833512E-20    1.344574E-20    6.347837E-21    2.982910E-21    1.395726E-21    6.505219E-22    3.021118E-22    1.398450E-22    6.453829E-23    2.970216E-23    1.363508E-23    6.244799E-24    2.854005E-24    1.301804E-24    5.927416E-25    2.694538E-25    1.223121E-25    5.544791E-26    2.510689E-26    1.135669E-26    5.132384E-27    2.317658E-27    1.045912E-27    4.717452E-28    2.126851E-28    9.585923E-29    4.319653E-29    1.946406E-29    8.770811E-30    3.952946E-30    1.782092E-30    8.037501E-31    3.626992E-31    1.637798E-31    7.401464E-32    3.347921E-32    1.515980E-32    6.872827E-33    3.120090E-33    1.418589E-33    6.460593E-34    2.947702E-34    1.347595E-34    6.174059E-35    2.835254E-35    1.305273E-35    6.025342E-36    2.789448E-36    1.295381E-36    6.035383E-37    2.821763E-37    1.324096E-37    6.236952E-38    2.949496E-38    1.400604E-38    6.679521E-39    3.199672E-39    1.539781E-39    7.444896E-40    3.616959E-40    1.765773E-40    8.662546E-41    4.270604E-41    2.115827E-41    1.053491E-41    5.271686E-42    2.651184E-42    1.340008E-42    6.806574E-43    3.474248E-43    1.781794E-43    9.180619E-44    4.751881E-44    2.470722E-44    1.290591E-44    6.774942E-45    3.573383E-45    1.892981E-45    1.006792E-45    5.374430E-46    2.879355E-46    1.548836E-46    8.376132E-47    4.556441E-47    2.488576E-47    1.362864E-47    7.480548E-48    4.117660E-48    2.278586E-48    1.277543E-48    7.176042E-49    4.024617E-49    2.253831E-49    1.263119E-49    7.120221E-50    4.088265E-50    2.378817E-50    1.356141E-50    7.679116E-51    4.368425E-51    2.536501E-51    1.562092E-51    9.022297E-52    4.892631E-52    2.730541E-52    1.598148E-52    1.031691E-52    1.031691E-52     0.00000         0.00000         0.00000         0.00000         0.00000         0.00000         0.00000         0.00000         0.00000         0.00000         0.00000         0.00000         0.00000         0.00000         0.00000         0.00000         0.00000         0.00000         0.00000         0.00000         0.00000         0.00000         0.00000         0.00000    
1
  CONCENTRATION IN LAYER  70 AT END OF TIME STEP  73 IN STRESS PERIOD    1
  ---------------------------------------------------------------------------

 ........................................................................................................................................................................................................................................................................................................................................................................................................................................................................................................................................................................................................................................................................................................................................................................................................................................................................................................................................................................................................................................
   1      0.00000         0.00000         0.00000         0.00000         0.00000         0.00000         0.00000         0.00000         0.00000         0.00000         0.00000        1.097854-305    1.957389-302    3.435648-299    6.015560-296    1.050680-292    1.830530-289    3.181117-286    5.513954-283    9.532599-280    1.643644-276    2.826410-273    4.847040-270    8.289225-267    1.413607-263    2.403820-260    4.075809-257    6.890394-254    1.161373-250    1.951526-247    3.269111-244    5.459008-241    9.086608-238    1.507537-234    2.492788-231    4.107954-228    6.746196-225    1.103962-221    1.800025-218    2.924136-215    4.732323-212    7.629051-209    1.225025-205    1.959090-202    3.119984-199    4.947547-196    7.811140-193    1.227637-189    1.920420-186    2.989710-183    4.631262-180    7.137281-177    1.094080-173    1.667870-170    2.528005-167    3.808864-164    5.703016-161    8.483712-158    1.253456-154    1.838793-151    2.677328-148    3.867640-145    5.540900-142    7.868652-139    1.107087-135    1.542329-132    2.126248-129    2.898617-126    3.904579-123    5.192716-120    6.811475-117    8.803550-114    1.119789-110    1.399942-107    1.717698-104    2.065094-101    2.428276E-98    2.786994E-95    3.115026E-92    3.381910E-89    3.556220E-86    3.610272E-83    3.525678E-80    3.298603E-77    2.943189E-74    2.491601E-71    1.989799E-68    1.489362E-65    1.037284E-62    6.667509E-60    3.919532E-57    2.085846E-54    9.935444E-52    4.183424E-49    1.536181E-46    4.849615E-44    1.297201E-41    2.899097E-39    5.346304E-37    8.053748E-35    9.844169E-33    9.751317E-31    7.807885E-29    5.030797E-27    2.604779E-25    1.085171E-23    3.641900E-22    9.862765E-21    2.157181E-19    3.788535E-18    5.311522E-17    5.954659E-16    5.349115E-15    3.793782E-14    2.139819E-13    9.505341E-13    3.322947E-12    9.144213E-12    1.981479E-11    3.393840E-11    4.707753E-11    5.451182E-11    5.415194E-11    4.720110E-11    3.675616E-11    2.594353E-11    1.679392E-11    1.006719E-11    5.634094E-12    2.964104E-12    1.474657E-12    6.973553E-13    3.148788E-13    1.362985E-13    5.675913E-14    2.281141E-14    8.873062E-15    3.348960E-15    1.229318E-15    4.397882E-16    1.536284E-16    5.249242E-17    1.757113E-17    5.770350E-18    1.861532E-18    5.906395E-19    1.845150E-19    5.681092E-20    1.725520E-20    5.174402E-21    1.533159E-21    4.491669E-22    1.301981E-22    3.736262E-23    1.062052E-23    2.991921E-24    8.357082E-25    2.315515E-25    6.366534E-26    1.737731E-26    4.710162E-27    1.268241E-27    3.393205E-28    9.023628E-29    2.385764E-29    6.272706E-30    1.640454E-30    4.268344E-31    1.105317E-31    2.851137E-32    7.350673E-33    1.923109E-33    5.441921E-34    2.025081E-34    1.249599E-34    1.133559E-34    1.165453E-34    1.209699E-34    1.228652E-34    1.212561E-34    1.161755E-34    1.081477E-34    9.796146E-35    8.650645E-35    7.463824E-35    6.307638E-35    5.234481E-35    4.275816E-35    3.444650E-35    2.740337E-35    2.153877E-35    1.672371E-35    1.281979E-35    9.694701E-36    7.227701E-36    5.310169E-36    3.844700E-36    2.744482E-36    1.933290E-36    1.345726E-36    9.272639E-37    6.338333E-37    4.309117E-37    2.922544E-37    1.984631E-37    1.355656E-37    9.372304E-38    6.613182E-38    4.814642E-38    3.664042E-38    2.987056E-38    3.114774E-38    7.777482E-38    3.159871E-37    1.108797E-36    3.134455E-36    7.444389E-36    1.549571E-35    2.922697E-35    5.129427E-35    8.565183E-35    1.388222E-34    2.226409E-34    3.605063E-34    6.030775E-34    1.073867E-33    2.137853E-33    5.881320E-33    7.291243E-32    3.325208E-30    1.657693E-28    7.549927E-27    3.048925E-25    1.063021E-23    3.092233E-22    7.170073E-21    1.246515E-19    1.502834E-18    1.165940E-17    5.700606E-17    1.838616E-16    4.212341E-16    7.366188E-16    1.040662E-15    1.239671E-15    1.286050E-15    1.190984E-15    1.003735E-15    7.816605E-16    5.693954E-16    3.918475E-16    2.568396E-16    1.614257E-16    9.783345E-17    5.744508E-17    3.280942E-17    1.828916E-17    9.979140E-18    5.342856E-18    2.812955E-18    1.459029E-18    7.467493E-19    3.776623E-19    1.889655E-19    9.364369E-20    4.600476E-20    2.242426E-20    1.085290E-20    5.218801E-21    2.494864E-21    1.186318E-21    5.613542E-22    2.644462E-22    1.240702E-22    5.799329E-23    2.701493E-23    1.254499E-23    5.808854E-24    2.682677E-24    1.235947E-24    5.681636E-25    2.606580E-25    1.193630E-25    5.456850E-26    2.490900E-26    1.135476E-26    5.169738E-27    2.351191E-27    1.068298E-27    4.849945E-28    2.200254E-28    9.975877E-29    4.520858E-29    2.048005E-29    9.275344E-30    4.200164E-30    1.901904E-30    8.612823E-31    3.901089E-31    1.767494E-31    8.011428E-32    3.633212E-32    1.648731E-32    7.487519E-33    3.403363E-33    1.548516E-33    7.053712E-34    3.217160E-34    1.469402E-34    6.721747E-35    3.080065E-35    1.413964E-35    6.504065E-36    2.998275E-36    1.385395E-36    6.417570E-37    2.980874E-37    1.388593E-37    6.488534E-38    3.041859E-38    1.430977E-38    6.756293E-39    3.202208E-39    1.523845E-39    7.282282E-40    3.495522E-40    1.685585E-40    8.166753E-41    3.976160E-41    1.945554E-41    9.568303E-42    4.730263E-42    2.350922E-42    1.174710E-42    5.901854E-43    2.981422E-43    1.514367E-43    7.733915E-44    3.971154E-44    2.050097E-44    1.064058E-44    5.552418E-45    2.912857E-45    1.536315E-45    8.145494E-46    4.340772E-46    2.324697E-46    1.251012E-46    6.764277E-47    3.675139E-47    2.007079E-47    1.102051E-47    6.081337E-48    3.370813E-48    1.876120E-48    1.048530E-48    5.888228E-49    3.330024E-49    1.893083E-49    1.079885E-49    6.174761E-50    3.538929E-50    2.035865E-50    1.180984E-50    6.926070E-51    4.062191E-51    2.378575E-51    1.393369E-51    8.212835E-52    4.943766E-52    3.000108E-52    1.783661E-52    1.055466E-52    6.306650E-53    3.896049E-53    2.539739E-53    1.422172E-53    8.199798E-54    4.959951E-54    3.309835E-54    3.309835E-54     0.00000         0.00000         0.00000         0.00000         0.00000         0.00000         0.00000         0.00000         0.00000         0.00000         0.00000         0.00000         0.00000         0.00000         0.00000         0.00000         0.00000         0.00000         0.00000    
1
  CONCENTRATION IN LAYER  71 AT END OF TIME STEP  73 IN STRESS PERIOD    1
  ---------------------------------------------------------------------------

 ........................................................................................................................................................................................................................................................................................................................................................................................................................................................................................................................................................................................................................................................................................................................................................................................................................................................................................................................................................................................................................................
   1      0.00000         0.00000         0.00000         0.00000         0.00000         0.00000         0.00000         0.00000         0.00000         0.00000         0.00000        3.708302-307    9.970754-304    1.752429-300    3.072130-297    5.372485-294    9.371992-291    1.630776-287    2.830393-284    4.899739-281    8.459728-278    1.456733-274    2.501648-271    4.284274-268    7.316681-265    1.245999-261    2.115769-258    3.582158-255    6.046807-252    1.017630-248    1.707311-245    2.855423-242    4.760339-239    7.910218-236    1.310070-232    2.162353-229    3.556760-226    5.829695-223    9.520647-220    1.549104-216    2.511020-213    4.054477-210    6.520663-207    1.044421-203    1.665856-200    2.645610-197    4.182974-194    6.583494-191    1.031278-187    1.607591-184    2.493340-181    3.846935-178    5.903238-175    9.007727-172    1.366437-168    2.060181-165    3.086346-162    4.592816-159    6.786871-156    9.955521-153    1.449093-149    2.092111-146    2.994543-143    4.247324-140    5.966225-137    8.295064-134    1.140737-130    1.550518-127    2.081330-124    2.756685-121    3.599017-118    4.626499-115    5.848742-112    7.261477-109    8.840678-106    1.053699-102    1.227180E-99    1.393665E-96    1.539793E-93    1.650820E-90    1.712461E-87    1.713294E-84    1.647320E-81    1.516085E-78    1.329633E-75    1.105708E-72    8.670366E-70    6.371316E-67    4.357235E-64    2.751897E-61    1.591333E-58    8.345523E-56    3.927614E-53    1.639707E-50    5.997069E-48    1.896304E-45    5.114481E-43    1.161161E-40    2.192544E-38    3.408816E-36    4.332845E-34    4.487411E-32    3.771080E-30    2.558663E-28    1.398622E-26    6.160379E-25    2.187091E-23    6.263658E-22    1.446707E-20    2.678461E-19    3.952352E-18    4.653588E-17    4.376343E-16    3.241685E-15    1.903041E-14    8.771548E-14    3.171478E-13    8.997688E-13    2.004454E-12    3.522188E-12    5.000869E-12    5.911737E-12    5.979959E-12    5.294452E-12    4.178325E-12    2.982826E-12    1.949420E-12    1.177990E-12    6.636680E-13    3.510805E-13    1.754502E-13    8.327042E-14    3.770793E-14    1.635909E-14    6.824174E-15    2.746103E-15    1.069114E-15    4.037476E-16    1.482521E-16    5.304267E-17    1.852786E-17    6.329428E-18    2.118059E-18    6.953102E-19    2.242142E-19    7.110789E-20    2.220362E-20    6.833146E-21    2.074488E-21    6.218180E-22    1.841686E-22    5.393587E-23    1.562913E-23    4.483819E-24    1.274262E-24    3.589127E-25    1.002403E-25    2.777209E-26    7.635928E-27    2.084316E-27    5.650194E-28    1.521599E-28    4.071957E-29    1.083160E-29    2.864706E-30    7.534784E-31    1.971348E-31    5.131594E-32    1.329346E-32    3.428245E-33    8.809805E-34    2.264605E-34    5.922932E-35    1.689520E-35    6.425478E-36    4.023762E-36    3.611962E-36    3.630723E-36    3.674601E-36    3.638976E-36    3.504175E-36    3.279384E-36    2.985782E-36    2.649197E-36    2.295384E-36    1.946688E-36    1.619996E-36    1.326046E-36    1.069908E-36    8.522346E-37    6.707864E-37    5.218191E-37    4.010863E-37    3.044274E-37    2.280272E-37    1.684810E-37    1.227779E-37    8.826989E-38    6.265195E-38    4.395224E-38    3.052317E-38    2.102505E-38    1.439929E-38    9.832855E-39    6.718006E-39    4.611899E-39    3.199169E-39    2.259560E-39    1.641537E-39    1.242468E-39    1.002470E-39    9.971345E-40    2.187848E-39    8.621349E-39    3.124848E-38    9.262298E-38    2.316065E-37    5.082651E-37    1.011103E-36    1.871489E-36    3.294566E-36    5.625711E-36    9.496560E-36    1.616470E-35    2.838167E-35    5.296017E-35    1.113433E-34    3.848402E-34    7.764371E-33    3.748949E-31    1.810196E-29    7.928724E-28    3.073225E-26    1.027519E-24    2.867784E-23    6.398693E-22    1.077993E-20    1.276566E-19    9.916814E-19    4.943959E-18    1.646829E-17    3.925126E-17    7.161267E-17    1.055754E-16    1.310734E-16    1.414265E-16    1.358907E-16    1.185216E-16    9.527456E-17    7.146238E-17    5.052080E-17    3.394389E-17    2.182492E-17    1.350698E-17    8.085388E-18    4.700896E-18    2.663993E-18    1.475959E-18    8.015603E-19    4.276586E-19    2.245978E-19    1.163053E-19    5.947346E-20    3.007054E-20    1.505042E-20    7.464182E-21    3.671359E-21    1.792354E-21    8.691113E-22    4.188431E-22    2.007208E-22    9.570044E-23    4.541610E-23    2.146125E-23    1.010200E-23    4.738167E-24    2.215108E-24    1.032476E-24    4.799263E-25    2.225252E-25    1.029405E-25    4.752062E-26    2.189507E-26    1.007057E-26    4.624620E-27    2.120700E-27    9.712415E-28    4.443039E-28    2.030466E-28    9.271042E-29    4.229915E-29    1.928660E-29    8.789214E-30    4.003715E-30    1.823235E-30    8.301098E-31    3.779104E-31    1.720477E-31    7.833605E-32    3.567573E-32    1.625278E-32    7.407503E-33    3.377932E-33    1.541387E-33    7.038858E-34    3.217153E-34    1.471874E-34    6.741416E-35    3.091474E-35    1.419607E-35    6.528514E-36    3.007193E-36    1.387617E-36    6.415087E-37    2.971852E-37    1.379791E-37    6.421467E-38    2.996154E-38    1.401779E-38    6.577451E-39    3.095835E-39    1.461913E-39    6.927465E-40    3.294760E-40    1.573114E-40    7.541773E-41    3.631216E-41    1.756224E-41    8.533670E-42    4.166737E-42    2.044725E-42    1.008616E-42    5.001955E-43    2.494261E-43    1.250800E-43    6.308421E-44    3.200148E-44    1.632895E-44    8.381168E-45    4.327412E-45    2.247744E-45    1.174551E-45    6.174535E-46    3.265365E-46    1.737092E-46    9.294855E-47    5.002209E-47    2.707445E-47    1.473743E-47    8.067623E-48    4.441717E-48    2.459528E-48    1.369585E-48    7.668028E-49    4.315922E-49    2.441944E-49    1.389065E-49    7.948164E-50    4.573454E-50    2.644976E-50    1.536665E-50    8.966092E-51    5.255598E-51    3.099482E-51    1.842052E-51    1.100128E-51    6.590401E-52    3.958728E-52    2.388161E-52    1.454915E-52    8.960198E-53    5.513482E-53    3.386757E-53    2.084861E-53    1.299242E-53    8.366925E-54    5.231901E-54    3.242180E-54    2.024313E-54    1.305543E-54    8.863088E-55    5.201826E-55    3.164903E-55    2.054178E-55    1.813515E-55    1.813515E-55     0.00000         0.00000         0.00000         0.00000         0.00000         0.00000         0.00000         0.00000         0.00000         0.00000         0.00000         0.00000         0.00000         0.00000    
1
  CONCENTRATION IN LAYER  72 AT END OF TIME STEP  73 IN STRESS PERIOD    1
  ---------------------------------------------------------------------------

 ........................................................................................................................................................................................................................................................................................................................................................................................................................................................................................................................................................................................................................................................................................................................................................................................................................................................................................................................................................................................................................................
   1      0.00000         0.00000         0.00000         0.00000         0.00000         0.00000         0.00000         0.00000         0.00000         0.00000         0.00000         0.00000        4.564780-305    8.061848-302    1.414733-298    2.476613-295    4.324854-292    7.533542-289    1.308958-285    2.268477-282    3.921109-279    6.759773-276    1.162215-272    1.992752-269    3.407332-266    5.809653-263    9.877348-260    1.674419-256    2.830086-253    4.768968-250    8.011517-247    1.341671-243    2.239712-240    3.726716-237    6.180449-234    1.021512-230    1.682539-227    2.761542-224    4.516147-221    7.358296-218    1.194372-214    1.931140-211    3.109959-208    4.987868-205    7.966068-202    1.266740-198    2.005339-195    3.159966-192    4.955693-189    7.733605-186    1.200709-182    1.854333-179    2.848014-176    4.349133-173    6.601820-170    9.958871-167    1.492509-163    2.221512-160    3.282894-157    4.814824-154    7.005562-151    1.010769-147    1.445428-144    2.047602-141    2.871742-138    3.984907-135    5.467110-132    7.410161-129    9.914190-126    1.308091-122    1.700276-119    2.174722-116    2.733640-113    3.372283-110    4.076422-107    4.820166-104    5.564770-101    6.259226E-98    6.843343E-95    7.253809E-92    7.433047E-89    7.339849E-86    6.959716E-83    6.312136E-80    5.451936E-77    4.462888E-74    3.443836E-71    2.490257E-68    1.676301E-65    1.042756E-62    5.945820E-60    3.079950E-57    1.435140E-54    5.950959E-52    2.170601E-49    6.879257E-47    1.870652E-44    4.310549E-42    8.320103E-40    1.331854E-37    1.754802E-35    1.893474E-33    1.664216E-31    1.184950E-29    6.814975E-28    3.163222E-26    1.184293E-24    3.576102E-23    8.697957E-22    1.693301E-20    2.623640E-19    3.237322E-18    3.181095E-17    2.456695E-16    1.498845E-15    7.159262E-15    2.674403E-14    7.815965E-14    1.788949E-13    3.223472E-13    4.683267E-13    5.651857E-13    5.822487E-13    5.238099E-13    4.191653E-13    3.028458E-13    1.999781E-13    1.219166E-13    6.920804E-14    3.684766E-14    1.851535E-14    8.828333E-15    4.013431E-15    1.746896E-15    7.307224E-16    2.947253E-16    1.149628E-16    4.348474E-17    1.598843E-17    5.726818E-18    2.002252E-18    6.845442E-19    2.292292E-19    7.529542E-20    2.429315E-20    7.708162E-21    2.408006E-21    7.413956E-22    2.251830E-22    6.752850E-23    2.000995E-23    5.863071E-24    1.699854E-24    4.879426E-25    1.387519E-25    3.910612E-26    1.092928E-26    3.030181E-27    8.337780E-28    2.277711E-28    6.179635E-29    1.665642E-29    4.461528E-30    1.187924E-30    3.144913E-31    8.280330E-32    2.168719E-32    5.651551E-33    1.465650E-33    3.783459E-34    9.725312E-35    2.491975E-35    6.393453E-36    1.674409E-36    4.830424E-37    1.885736E-37    1.200564E-37    1.066696E-37    1.048604E-37    1.035366E-37    1.000511E-37    9.410062E-38    8.611915E-38    7.678809E-38    6.683146E-38    5.690002E-38    4.750327E-38    3.898158E-38    3.151237E-38    2.514013E-38    1.981731E-38    1.544410E-38    1.189950E-38    9.061183E-39    6.815659E-39    5.061758E-39    3.710831E-39    2.685791E-39    1.920144E-39    1.357275E-39    9.498826E-40    6.593504E-40    4.549537E-40    3.128825E-40    2.151566E-40    1.485304E-40    1.034668E-40    7.323686E-41    5.317163E-41    4.008670E-41    3.205819E-41    3.064649E-41    5.945552E-41    2.245385E-40    8.358910E-40    2.589178E-39    6.797608E-39    1.568748E-38    3.283663E-38    6.395563E-38    1.184417E-37    2.126476E-37    3.771035E-37    6.735524E-37    1.239145E-36    2.420462E-36    5.433369E-36    2.620624E-35    7.687853E-34    3.757160E-32    1.755524E-30    7.408968E-29    2.762934E-27    8.882487E-26    2.385477E-24    5.136556E-23    8.406386E-22    9.789268E-21    7.609942E-20    3.861817E-19    1.325537E-18    3.278822E-18    6.227190E-18    9.561705E-18    1.235306E-17    1.384705E-17    1.379383E-17    1.244476E-17    1.032445E-17    7.974348E-18    5.792759E-18    3.991167E-18    2.626649E-18    1.661011E-18    1.014373E-18    6.008157E-19    3.464157E-19    1.950464E-19    1.075339E-19    5.818952E-20    3.096897E-20    1.623931E-20    8.403219E-21    4.296907E-21    2.173809E-21    1.089187E-21    5.410113E-22    2.666203E-22    1.304617E-22    6.342503E-23    3.065352E-23    1.473567E-23    7.049103E-24    3.357040E-24    1.592224E-24    7.523645E-25    3.542956E-25    1.663191E-25    7.785232E-26    3.634625E-26    1.692790E-26    7.866691E-27    3.648463E-27    1.689021E-27    7.806222E-28    3.602438E-28    1.660227E-28    7.642156E-29    3.513992E-29    1.614278E-29    7.409737E-30    3.398800E-30    1.558107E-30    7.139480E-31    3.270253E-31    1.497574E-31    6.856998E-32    3.139524E-32    1.437549E-32    6.583467E-33    3.015810E-33    1.382020E-33    6.336204E-34    2.906651E-34    1.334291E-34    6.129814E-35    2.818576E-35    1.297313E-35    5.977791E-36    2.757820E-36    1.274003E-36    5.893949E-37    2.731034E-37    1.267621E-37    5.894566E-38    2.746480E-38    1.282411E-38    6.001646E-39    2.815621E-39    1.324369E-39    6.246665E-40    2.955070E-40    1.402321E-40    6.676842E-41    3.190251E-41    1.530022E-41    7.366805E-42    3.561712E-42    1.729520E-42    8.436623E-43    4.135024E-43    2.036779E-43    1.008454E-43    5.019973E-44    2.512818E-44    1.265051E-44    6.406292E-45    3.263735E-45    1.672961E-45    8.629178E-46    4.479313E-46    2.340183E-46    1.230582E-46    6.513359E-47    3.470001E-47    1.860697E-47    1.004237E-47    5.455173E-48    2.982577E-48    1.641280E-48    9.090252E-49    5.067063E-49    2.842426E-49    1.604488E-49    9.113174E-50    5.207982E-50    2.994526E-50    1.732495E-50    1.008464E-50    5.905052E-51    3.477712E-51    2.059799E-51    1.226996E-51    7.354279E-52    4.437867E-52    2.694390E-52    1.644591E-52    1.008759E-52    6.220145E-53    3.863001E-53    2.419821E-53    1.523542E-53    9.623148E-54    6.100112E-54    3.895281E-54    2.528088E-54    1.640095E-54    1.061209E-54    6.875000E-55    4.508282E-55    3.058193E-55    2.010303E-55    1.312129E-55    8.693295E-56    6.021382E-56    3.993852E-56    2.514289E-56    1.680817E-56    1.296981E-56    1.296981E-56     0.00000         0.00000         0.00000         0.00000         0.00000         0.00000         0.00000         0.00000         0.00000         0.00000    
1
  CONCENTRATION IN LAYER  73 AT END OF TIME STEP  73 IN STRESS PERIOD    1
  ---------------------------------------------------------------------------

 ........................................................................................................................................................................................................................................................................................................................................................................................................................................................................................................................................................................................................................................................................................................................................................................................................................................................................................................................................................................................................................................
   1      0.00000         0.00000         0.00000         0.00000         0.00000         0.00000         0.00000         0.00000         0.00000         0.00000         0.00000         0.00000        1.673802-306    3.317409-303    5.826528-300    1.020770-296    1.783956-293    3.110015-290    5.408134-287    9.380429-284    1.622824-280    2.800121-277    4.818598-274    8.269609-271    1.415308-267    2.415453-264    4.110625-261    6.975215-258    1.180119-254    1.990625-251    3.347530-248    5.611851-245    9.377948-242    1.562076-238    2.593342-235    4.290921-232    7.075252-229    1.162519-225    1.903218-222    3.104340-219    5.044309-216    8.164741-213    1.316271-209    2.113301-206    3.378606-203    5.377964-200    8.522003-197    1.344139-193    2.109868-190    3.295338-187    5.120318-184    7.913318-181    1.216159-177    1.858185-174    2.821911-171    4.258264-168    6.383007-165    9.501200-162    1.403901-158    2.058397-155    2.993445-152    4.315790-149    6.165592-146    8.723125-143    1.221480-139    1.691712-136    2.315646-133    3.130205-130    4.174860-127    5.488524-124    7.104713-121    9.044842-118    1.130974-114    1.387003-111    1.665663-108    1.955345-105    2.239490-102    2.497126E-99    2.704444E-96    2.837505E-93    2.875900E-90    2.806842E-87    2.628782E-84    2.353484E-81    2.005587E-78    1.619218E-75    1.232113E-72    8.785959E-70    5.834103E-67    3.582395E-64    2.018579E-61    1.034941E-58    4.783637E-56    1.973316E-53    7.186595E-51    2.284335E-48    6.262878E-46    1.463725E-43    2.883914E-41    4.743076E-39    6.459614E-37    7.239156E-35    6.633676E-33    4.941147E-31    2.980749E-29    1.453630E-27    5.722862E-26    1.817070E-24    4.642396E-23    9.481501E-22    1.539337E-20    1.986666E-19    2.036336E-18    1.637108E-17    1.036687E-16    5.125798E-16    1.976516E-15    5.946148E-15    1.397573E-14    2.581328E-14    3.836827E-14    4.727026E-14    4.960520E-14    4.536281E-14    3.682764E-14    2.694686E-14    1.799225E-14    1.107590E-14    6.340985E-15    3.401185E-15    1.720158E-15    8.248592E-16    3.768579E-16    1.647509E-16    6.918102E-17    2.799843E-17    1.095449E-17    4.154818E-18    1.531390E-18    5.497464E-19    1.926006E-19    6.597302E-20    2.213143E-20    7.281857E-21    2.353211E-21    7.478394E-22    2.339805E-22    7.214832E-23    2.194625E-23    6.591113E-24    1.955987E-24    5.739810E-25    1.666642E-25    4.791431E-26    1.364614E-26    3.852115E-27    1.078300E-27    2.994471E-28    8.253072E-29    2.258331E-29    6.137413E-30    1.657094E-30    4.446329E-31    1.185954E-31    3.145265E-32    8.296091E-33    2.176776E-33    5.682890E-34    1.476475E-34    3.818295E-35    9.830968E-36    2.521044E-36    6.447154E-37    1.652783E-37    4.342535E-38    1.271682E-38    5.118968E-39    3.318521E-39    2.919635E-39    2.808545E-39    2.707562E-39    2.555602E-39    2.350303E-39    2.106127E-39    1.841643E-39    1.574540E-39    1.319206E-39    1.085693E-39    8.796700E-40    7.030723E-40    5.551193E-40    4.333763E-40    3.346403E-40    2.555501E-40    1.929312E-40    1.439407E-40    1.060983E-40    7.726553E-41    5.561351E-41    3.959401E-41    2.791584E-41    1.952283E-41    1.357031E-41    9.398782E-42    6.505766E-42    4.517347E-42    3.161490E-42    2.244306E-42    1.630070E-42    1.225506E-42    9.726592E-43    8.992590E-43    1.554320E-42    5.558382E-42    2.111961E-41    6.811784E-41    1.872126E-40    4.531128E-40    9.953778E-40    2.034985E-39    3.955236E-39    7.449415E-39    1.384838E-38    2.590222E-38    4.983768E-38    1.018393E-37    2.496769E-37    1.839774E-36    6.878193E-35    3.329564E-33    1.505914E-31    6.134932E-30    2.205889E-28    6.835449E-27    1.770996E-25    3.689663E-24    5.878777E-23    6.739448E-22    5.240566E-21    2.703023E-20    9.541231E-20    2.444029E-19    4.822034E-19    7.697962E-19    1.033425E-18    1.202131E-18    1.240549E-18    1.157186E-18    9.905876E-19    7.878737E-19    5.882146E-19    4.157525E-19    2.801994E-19    1.811622E-19    1.129478E-19    6.820484E-20    4.004303E-20    2.293155E-20    1.284587E-20    7.056428E-21    3.809137E-21    2.024418E-21    1.061002E-21    5.491586E-22    2.810567E-22    1.423930E-22    7.148405E-23    3.559054E-23    1.758740E-23    8.631965E-24    4.210431E-24    2.042170E-24    9.854185E-25    4.732677E-25    2.263214E-25    1.078041E-25    5.116585E-26    2.420426E-26    1.141538E-26    5.368914E-27    2.518729E-27    1.178880E-27    5.506032E-28    2.566671E-28    1.194375E-28    5.549097E-29    2.574441E-29    1.192853E-29    5.520721E-30    2.552509E-30    1.179118E-30    5.442763E-31    2.510759E-31    1.157615E-31    5.335139E-32    2.458086E-32    1.132309E-32    5.215484E-33    2.402323E-33    1.106672E-33    5.099191E-34    2.350288E-34    1.083731E-34    4.999717E-35    2.308001E-35    1.066195E-35    4.929374E-36    2.281104E-36    1.056676E-36    4.900348E-37    2.275345E-37    1.057914E-37    4.925893E-38    2.297220E-38    1.073139E-38    5.022270E-39    2.355006E-39    1.106600E-39    5.211426E-40    2.460103E-40    1.164250E-40    5.524646E-41    2.629057E-41    1.254898E-41    6.009099E-42    2.887250E-42    1.392253E-42    6.739035E-43    3.275001E-43    1.598271E-43    7.834456E-44    3.858181E-44    1.909279E-44    9.496589E-45    4.748686E-45    2.387703E-45    1.207473E-45    6.142577E-46    3.144000E-46    1.619394E-46    8.395297E-47    4.381279E-47    2.302000E-47    1.217852E-47    6.487878E-48    3.480608E-48    1.880503E-48    1.023246E-48    5.607780E-49    3.095411E-49    1.720933E-49    9.636491E-50    5.434544E-50    3.086564E-50    1.765378E-50    1.016799E-50    5.897227E-51    3.443947E-51    2.025007E-51    1.198745E-51    7.143951E-52    4.286040E-52    2.588772E-52    1.574361E-52    9.641837E-53    5.945504E-53    3.690428E-53    2.305414E-53    1.449577E-53    9.179575E-54    5.858534E-54    3.764926E-54    2.434079E-54    1.582864E-54    1.036573E-54    6.858048E-55    4.565401E-55    3.050252E-55    2.045651E-55    1.382725E-55    9.512809E-56    6.534966E-56    4.476995E-56    3.079393E-56    2.158980E-56    1.529292E-56    1.059509E-56    7.392124E-57    5.420401E-57    3.764819E-57    2.508716E-57    1.807600E-57    1.807600E-57     0.00000         0.00000         0.00000         0.00000         0.00000         0.00000         0.00000    
1
  CONCENTRATION IN LAYER  74 AT END OF TIME STEP  73 IN STRESS PERIOD    1
  ---------------------------------------------------------------------------

 ........................................................................................................................................................................................................................................................................................................................................................................................................................................................................................................................................................................................................................................................................................................................................................................................................................................................................................................................................................................................................................................
   1      0.00000         0.00000         0.00000         0.00000         0.00000         0.00000         0.00000         0.00000         0.00000         0.00000         0.00000         0.00000        4.501086-308    1.209081-304    2.127159-301    3.728323-298    6.518857-295    1.136995-291    1.978151-288    3.432869-285    5.942039-282    1.025834-278    1.766298-275    3.033038-272    5.193975-269    8.869724-266    1.510387-262    2.564559-259    4.341716-256    7.328435-253    1.233212-249    2.068786-246    3.459538-243    5.766564-240    9.580389-237    1.586299-233    2.617519-230    4.303905-227    7.051259-224    1.150966-220    1.871579-217    3.031514-214    4.890678-211    7.857525-208    1.257058-204    2.002255-201    3.174793-198    5.010441-195    7.869165-192    1.229689-188    1.911574-185    2.955460-182    4.543582-179    6.943906-176    1.054691-172    1.591609-169    2.385613-166    3.550315-163    5.244141-160    7.685020-157    1.116826-153    1.608734-150    2.295674-147    3.243480-144    4.534301-141    6.267650-138    8.559778-135    1.154037-131    1.534536-128    2.010467-125    2.592376-122    3.285885-119    4.088652-116    4.987053-113    5.953103-110    6.942385-107    7.893936-104    8.733091-101    9.377977E-98    9.749737E-95    9.785507E-92    9.451959E-89    8.756182E-86    7.750333E-83    6.527300E-80    5.206790E-77    3.914246E-74    2.757840E-71    1.810074E-68    1.099344E-65    6.133408E-63    3.118320E-60    1.432166E-57    5.885787E-55    2.142581E-52    6.834750E-50    1.889436E-47    4.476364E-45    8.991858E-43    1.516571E-40    2.129644E-38    2.471960E-36    2.355080E-34    1.829938E-32    1.154652E-30    5.900197E-29    2.436298E-27    8.113864E-26    2.172609E-24    4.645680E-23    7.888301E-22    1.063030E-20    1.134922E-19    9.485837E-19    6.227753E-18    3.184515E-17    1.266596E-16    3.920205E-16    9.458003E-16    1.790174E-15    2.721977E-15    3.423825E-15    3.660926E-15    3.404580E-15    2.805797E-15    2.080655E-15    1.405892E-15    8.746947E-16    5.055308E-16    2.734627E-16    1.393577E-16    6.728290E-17    3.092971E-17    1.359720E-17    5.738749E-18    2.333394E-18    9.168816E-19    3.491458E-19    1.291701E-19    4.653350E-20    1.635725E-20    5.620872E-21    1.891381E-21    6.241687E-22    2.022913E-22    6.446957E-23    2.022721E-23    6.254276E-24    1.907632E-24    5.744717E-25    1.709410E-25    5.029731E-26    1.464383E-26    4.221262E-27    1.205456E-27    3.411978E-28    9.576622E-29    2.666610E-29    7.369230E-30    2.021908E-30    5.509683E-31    1.491610E-31    4.013062E-32    1.073265E-32    2.854037E-33    7.548086E-34    1.985800E-34    5.198120E-35    1.354112E-35    3.511086E-36    9.063346E-37    2.329669E-37    5.965591E-38    1.524109E-38    3.908990E-39    1.032648E-39    3.082960E-40    1.285628E-40    8.498432E-41    7.407978E-41    6.979058E-41    6.575670E-41    6.069168E-41    5.464586E-41    4.801222E-41    4.122981E-41    3.467719E-41    2.863119E-41    2.325855E-41    1.862813E-41    1.473418E-41    1.152279E-41    8.915235E-42    6.825201E-42    5.169288E-42    3.872104E-42    2.867847E-42    2.100088E-42    1.520912E-42    1.090006E-42    7.738489E-43    5.450179E-43    3.815060E-43    2.660309E-43    1.853230E-43    1.294201E-43    9.100459E-44    6.481051E-44    4.711853E-44    3.535234E-44    2.787306E-44    2.504962E-44    3.890506E-44    1.301889E-43    5.013506E-43    1.677205E-42    4.810137E-42    1.217355E-41    2.798609E-41    5.989338E-41    1.218506E-40    2.401422E-40    4.668406E-40    9.122994E-40    1.832023E-39    3.917675E-39    1.093011E-38    1.278221E-37    5.462464E-36    2.593030E-34    1.136123E-32    4.475138E-31    1.554464E-29    4.652870E-28    1.165687E-26    2.355146E-25    3.660406E-24    4.135431E-23    3.215726E-22    1.683667E-21    6.100861E-21    1.615196E-20    3.304469E-20    5.475912E-20    7.628824E-20    9.199996E-20    9.828311E-20    9.474820E-20    8.367442E-20    6.853463E-20    5.259926E-20    3.815359E-20    2.634692E-20    1.742775E-20    1.110088E-20    6.839775E-21    4.092482E-21    2.385919E-21    1.359310E-21    7.587172E-22    4.158191E-22    2.241998E-22    1.191275E-22    6.247188E-23    3.237617E-23    1.660122E-23    8.430927E-24    4.244511E-24    2.120066E-24    1.051367E-24    5.179923E-25    2.536921E-25    1.235751E-25    5.989611E-26    2.889971E-26    1.388615E-26    6.646833E-27    3.170519E-27    1.507491E-27    7.146670E-28    3.378967E-28    1.593655E-28    7.499399E-29    3.521811E-29    1.650795E-29    7.724726E-30    3.609166E-30    1.683960E-30    7.847316E-31    3.652885E-31    1.698768E-31    7.893527E-32    3.665223E-32    1.700880E-32    7.889352E-33    3.658070E-33    1.695717E-33    7.859443E-34    3.642613E-34    1.688347E-34    7.826755E-35    3.629247E-35    1.683484E-35    7.812715E-36    3.627757E-36    1.685622E-36    7.838097E-37    3.647815E-37    1.699298E-37    7.924370E-38    3.699665E-38    1.729448E-38    8.095549E-39    3.795125E-39    1.781951E-39    8.381184E-40    3.949180E-40    1.864463E-40    8.820651E-41    4.182200E-41    1.987584E-41    9.469438E-42    4.523410E-42    2.166798E-42    1.041004E-42    5.016982E-43    2.425857E-43    1.177065E-43    5.732330E-44    2.802490E-44    1.375717E-44    6.782353E-45    3.358881E-45    1.671366E-45    8.358187E-46    4.201633E-46    2.123692E-46    1.079529E-46    5.520111E-47    2.840096E-47    1.470579E-47    7.664932E-48    4.022359E-48    2.125620E-48    1.131341E-48    6.065510E-49    3.276158E-49    1.782946E-49    9.777632E-50    5.403667E-50    3.009744E-50    1.689549E-50    9.559081E-51    5.450843E-51    3.132633E-51    1.814458E-51    1.059162E-51    6.230678E-52    3.693512E-52    2.206249E-52    1.327924E-52    8.053803E-53    4.922095E-53    3.031353E-53    1.881375E-53    1.176639E-53    7.414926E-54    4.708154E-54    3.012287E-54    1.942387E-54    1.262652E-54    8.273023E-55    5.462027E-55    3.633368E-55    2.436038E-55    1.647912E-55    1.123743E-55    7.716455E-56    5.334072E-56    3.716804E-56    2.620276E-56    1.859236E-56    1.324241E-56    9.479709E-57    6.864169E-57    5.033564E-57    3.679988E-57    2.693964E-57    2.011629E-57    1.517398E-57    1.116237E-57    8.314383E-58    6.668303E-58    4.583400E-58    3.378467E-58    3.378467E-58     0.00000         0.00000         0.00000         0.00000    
1
  CONCENTRATION IN LAYER  75 AT END OF TIME STEP  73 IN STRESS PERIOD    1
  ---------------------------------------------------------------------------

 ........................................................................................................................................................................................................................................................................................................................................................................................................................................................................................................................................................................................................................................................................................................................................................................................................................................................................................................................................................................................................................................
   1      0.00000         0.00000         0.00000         0.00000         0.00000         0.00000         0.00000         0.00000         0.00000         0.00000         0.00000         0.00000         0.00000        3.739006-306    6.818261-303    1.195154-299    2.089810-296    3.645226-293    6.342507-290    1.100779-286    1.905571-283    3.290173-280    5.665822-277    9.730596-274    1.666591-270    2.846505-267    4.848055-264    8.233306-261    1.394151-257    2.353696-254    3.961612-251    6.647349-248    1.111867-244    1.853775-241    3.080568-238    5.102021-235    8.420891-232    1.384977-228    2.269648-225    3.705656-222    6.027263-219    9.765126-216    1.575758-212    2.532229-209    4.051935-206    6.455172-203    1.023704-199    1.615822-196    2.537987-193    3.966264-190    6.165708-187    9.532328-184    1.465302-180    2.239014-177    3.399910-174    5.128945-171    7.684162-168    1.142926-164    1.687034-161    2.470189-158    3.586216-155    5.159694-152    7.352810-149    1.037202-145    1.447332-142    1.996435-139    2.720081-136    3.657412-133    4.848647-130    6.331003-127    8.132748-124    1.026539-120    1.271437-117    1.542937-114    1.831577-111    2.122985-108    2.398066-105    2.634106-102    2.806979E-99    2.894394E-96    2.879787E-93    2.756147E-90    2.528778E-87    2.216015E-84    1.847237E-81    1.458233E-78    1.084849E-75    7.565393E-73    4.916739E-70    2.958901E-67    1.637413E-64    8.268976E-62    3.779333E-59    1.549396E-56    5.643276E-54    1.807682E-51    5.039339E-49    1.209708E-46    2.474868E-44    4.273518E-42    6.174298E-40    7.405004E-38    7.316539E-36    5.915540E-34    3.894307E-32    2.080036E-30    8.987171E-29    3.132566E-27    8.773365E-26    1.960590E-24    3.476102E-23    4.884149E-22    5.424564E-21    4.708471E-20    3.202069E-19    1.692086E-18    6.937945E-18    2.208350E-17    5.467771E-17    1.060443E-16    1.649522E-16    2.118821E-16    2.309345E-16    2.185280E-16    1.829484E-16    1.376095E-16    9.418668E-17    5.928731E-17    3.463057E-17    1.891522E-17    9.725030E-18    4.733709E-18    2.192506E-18    9.706205E-19    4.123363E-19    1.686881E-19    6.666912E-20    2.552748E-20    9.493946E-21    3.437514E-21    1.214250E-21    4.192351E-22    1.417219E-22    4.698079E-23    1.529395E-23    4.895440E-24    1.542560E-24    4.789955E-25    1.467166E-25    4.436778E-26    1.325702E-26    3.916813E-27    1.145036E-27    3.314150E-28    9.502447E-29    2.700432E-29    7.609764E-30    2.127348E-30    5.902139E-31    1.625716E-31    4.447261E-32    1.208623E-32    3.264128E-33    8.762737E-34    2.338940E-34    6.208807E-35    1.639470E-35    4.307200E-36    1.126077E-36    2.930240E-37    7.590619E-38    1.957804E-38    5.029007E-39    1.287189E-39    3.288806E-40    8.450937E-41    2.250598E-41    6.884660E-42    2.988746E-42    2.016910E-42    1.743032E-42    1.609807E-42    1.484045E-42    1.341016E-42    1.183638E-42    1.021023E-42    8.622567E-43    7.144121E-43    5.820247E-43    4.672341E-43    3.702719E-43    2.900702E-43    2.248361E-43    1.724988E-43    1.310022E-43    9.846215E-44    7.322679E-44    5.388253E-44    3.923538E-44    2.828632E-44    2.020800E-44    1.432426E-44    1.009156E-44    7.081269E-45    4.962215E-45    3.483879E-45    2.460668E-45    1.757826E-45    1.279356E-45    9.582281E-46    7.509239E-46    6.586033E-46    9.274225E-46    2.871220E-45    1.111790E-44    3.841213E-44    1.145577E-43    3.021738E-43    7.246957E-43    1.618539E-42    3.436491E-42    7.066349E-42    1.432572E-41    2.917253E-41    6.100270E-41    1.368562E-40    4.630816E-40    8.355815E-39    3.799411E-37    1.760622E-35    7.479445E-34    2.852606E-32    9.588421E-31    2.777556E-29    6.742348E-28    1.323694E-26    2.010302E-25    2.240431E-24    1.741889E-23    9.247560E-23    3.434480E-22    9.381743E-22    1.987058E-21    3.413244E-21    4.929185E-21    6.157339E-21    6.805570E-21    6.778337E-21    6.175113E-21    5.209275E-21    4.111318E-21    3.062028E-21    2.167916E-21    1.468227E-21    9.562830E-22    6.017603E-22    3.673115E-22    2.182326E-22    1.265853E-22    7.187266E-23    4.003642E-23    2.192449E-23    1.182366E-23    6.289206E-24    3.304117E-24    1.716546E-24    8.827968E-25    4.498668E-25    2.273484E-25    1.140281E-25    5.679848E-26    2.811436E-26    1.383637E-26    6.773777E-27    3.300248E-27    1.600823E-27    7.733559E-28    3.722198E-28    1.785401E-28    8.537087E-29    4.070367E-29    1.935580E-29    9.182024E-30    4.346160E-30    2.053038E-30    9.680353E-31    4.556831E-31    2.141818E-31    1.005349E-31    4.713347E-32    2.207399E-32    1.032831E-32    4.828704E-33    2.255998E-33    1.053430E-33    4.916800E-34    2.294130E-34    1.070189E-34    4.991795E-35    2.328373E-35    1.086158E-35    5.067837E-36    2.365292E-36    1.104392E-36    5.159176E-37    2.411567E-37    1.128036E-37    5.280722E-38    2.474306E-38    1.160502E-38    5.448969E-39    2.561545E-39    1.205739E-39    5.683474E-40    2.683054E-40    1.268667E-40    6.009196E-41    2.851580E-41    1.355833E-41    6.459966E-42    3.084695E-42    1.476414E-42    7.083975E-43    3.407844E-43    1.643918E-43    7.953253E-44    3.859607E-44    1.879088E-44    9.179795E-45    4.500694E-45    2.214980E-45    1.094438E-45    5.430434E-46    2.706418E-46    1.355097E-46    6.818075E-47    3.448050E-47    1.753122E-47    8.963688E-48    4.610079E-48    2.385552E-48    1.242338E-48    6.512836E-49    3.437837E-49    1.827621E-49    9.787434E-50    5.281105E-50    2.871706E-50    1.573962E-50    8.696783E-51    4.844994E-51    2.721740E-51    1.541898E-51    8.809437E-52    5.076274E-52    2.950258E-52    1.729409E-52    1.022479E-52    6.097068E-53    3.666820E-53    2.224129E-53    1.360632E-53    8.395432E-54    5.224886E-54    3.279785E-54    2.076546E-54    1.326051E-54    8.540992E-55    5.548928E-55    3.636674E-55    2.404604E-55    1.604084E-55    1.079544E-55    7.329755E-56    5.021498E-56    3.472343E-56    2.423231E-56    1.706170E-56    1.211882E-56    8.687601E-57    6.293547E-57    4.601314E-57    3.390692E-57    2.518471E-57    1.890031E-57    1.435239E-57    1.096271E-57    8.418083E-58    6.546589E-58    5.166667E-58    4.059060E-58    3.204742E-58    2.640891E-58    2.078155E-58    1.638189E-58    1.404259E-58    1.027631E-58    8.267032E-59    8.267032E-59     0.00000    
1
  CONCENTRATION IN LAYER  76 AT END OF TIME STEP  73 IN STRESS PERIOD    1
  ---------------------------------------------------------------------------

 ........................................................................................................................................................................................................................................................................................................................................................................................................................................................................................................................................................................................................................................................................................................................................................................................................................................................................................................................................................................................................................................
   1      0.00000         0.00000         0.00000         0.00000         0.00000         0.00000         0.00000         0.00000         0.00000         0.00000         0.00000         0.00000         0.00000        6.951718-308    1.897128-304    3.327834-301    5.816273-298    1.014065-294    1.763634-291    3.059547-288    5.294132-285    9.137007-282    1.572776-278    2.700008-275    4.622523-272    7.892038-269    1.343614-265    2.280938-262    3.860854-259    6.515694-256    1.096278-252    1.838812-249    3.074561-246    5.124241-243    8.512284-240    1.409291-236    2.325194-233    3.822837-230    6.262415-227    1.022084-223    1.661793-220    2.691322-217    4.341139-214    6.973285-211    1.115346-207    1.776067-204    2.815270-201    4.441410-198    6.972439-195    1.089002-191    1.691857-188    2.613916-185    4.015208-182    6.130536-179    9.301199-176    1.401828-172    2.098068-169    3.117121-166    4.595403-163    6.719547-160    9.740842-157    1.399161-153    1.990252-150    2.801875-147    3.901184-144    5.368220-141    7.294569-138    9.779597-135    1.292334-131    1.681521-128    2.151799-125    2.704731-122    3.334794-119    4.026983-116    4.754875-113    5.479770-110    6.151658-107    6.712616-104    7.102941-101    7.269658E-98    7.176281E-95    6.811823E-92    6.196593E-89    5.382492E-86    4.446572E-83    3.478505E-80    2.564648E-77    1.772909E-74    1.142672E-71    6.824420E-69    3.751587E-66    1.884574E-63    8.583052E-61    3.514112E-58    1.281726E-55    4.124930E-53    1.159716E-50    2.819693E-48    5.869753E-46    1.036200E-43    1.537389E-41    1.901102E-39    1.943762E-37    1.631577E-35    1.118104E-33    6.228664E-32    2.810127E-30    1.023132E-28    2.991895E-27    6.976657E-26    1.289809E-24    1.887240E-23    2.178331E-22    1.961892E-21    1.381133E-20    7.538644E-20    3.185478E-19    1.042582E-18    2.649136E-18    5.265221E-18    8.380867E-18    1.099840E-17    1.222672E-17    1.178195E-17    1.002943E-17    7.660191E-18    5.317294E-18    3.390770E-18    2.004529E-18    1.107164E-18    5.751979E-19    2.827308E-19    1.321643E-19    5.902206E-20    2.528288E-20    1.042591E-20    4.152170E-21    1.601642E-21    5.999487E-22    2.187454E-22    7.779628E-23    2.703986E-23    9.200839E-24    3.069794E-24    1.005698E-24    3.239387E-25    1.027080E-25    3.208895E-26    9.888650E-27    3.008379E-27    9.042569E-28    2.687408E-28    7.902221E-29    2.300408E-29    6.633522E-30    1.895792E-30    5.372167E-31    1.510112E-31    4.212530E-32    1.166572E-32    3.208206E-33    8.764612E-34    2.379302E-34    6.419947E-35    1.722218E-35    4.594335E-36    1.219078E-36    3.218137E-37    8.453318E-38    2.209937E-38    5.750938E-39    1.489971E-39    3.843931E-40    9.877419E-41    2.529601E-41    6.471118E-42    1.668703E-42    4.494406E-43    1.417102E-43    6.436046E-44    4.437774E-44    3.804671E-44    3.448369E-44    3.114066E-44    2.758358E-44    2.389763E-44    2.026608E-44    1.685327E-44    1.377278E-44    1.108422E-44    8.801801E-45    6.907213E-45    5.362718E-45    4.121934E-45    3.137336E-45    2.364603E-45    1.764574E-45    1.303693E-45    9.537060E-46    6.910806E-46    4.964081E-46    3.538604E-46    2.507107E-46    1.768953E-46    1.246029E-46    8.788735E-47    6.231144E-47    4.462763E-47    3.250388E-47    2.429909E-47    1.892833E-47    1.624795E-47    2.093025E-47    5.931597E-47    2.288740E-46    8.127266E-46    2.510741E-45    6.877370E-45    1.714545E-44    3.982259E-44    8.793836E-44    1.880396E-43    3.962706E-43    8.383094E-43    1.820831E-42    4.313417E-42    1.917176E-41    4.921707E-40    2.284572E-38    1.031289E-36    4.251030E-35    1.571651E-33    5.119096E-32    1.437380E-30    3.386511E-29    6.471719E-28    9.618501E-27    1.058374E-25    8.226509E-25    4.424327E-24    1.681857E-23    4.733244E-23    1.036430E-22    1.843290E-22    2.756861E-22    3.564881E-22    4.075090E-22    4.192892E-22    3.940845E-22    3.425184E-22    2.781328E-22    2.128414E-22    1.546303E-22    1.073260E-22    7.155492E-23    4.603941E-23    2.870357E-23    1.740153E-23    1.029006E-23    5.951033E-24    3.373890E-24    1.879009E-24    1.029850E-24    5.563652E-25    2.966877E-25    1.563633E-25    8.153548E-26    4.210776E-26    2.155567E-26    1.094674E-26    5.518686E-27    2.763676E-27    1.375575E-27    6.808464E-28    3.352601E-28    1.643102E-28    8.017945E-29    3.896986E-29    1.887125E-29    9.107648E-30    4.381910E-30    2.102236E-30    1.005916E-30    4.801748E-31    2.287086E-31    1.087163E-31    5.158394E-32    2.443521E-32    1.155766E-32    5.459374E-33    2.575722E-33    1.213946E-33    5.716140E-34    2.689466E-34    1.264572E-34    5.942765E-35    2.791594E-35    1.310946E-35    6.155100E-36    2.889686E-36    1.356682E-36    6.370350E-37    2.991929E-37    1.405680E-37    6.607129E-38    3.107234E-38    1.462221E-38    6.886100E-39    3.245619E-39    1.531188E-39    7.231189E-40    3.418881E-40    1.618435E-40    7.671632E-41    3.641718E-41    1.731396E-41    8.245265E-42    3.933490E-42    1.880030E-42    9.003561E-43    4.320932E-43    2.078291E-43    1.001971E-43    4.842617E-44    2.346602E-44    1.140233E-44    5.556556E-45    2.716072E-45    1.331892E-45    6.553307E-46    3.235874E-46    1.603767E-46    7.979821E-47    3.986890E-47    2.000580E-47    1.008449E-47    5.107720E-48    2.600038E-48    1.330514E-48    6.846334E-49    3.543326E-49    1.844999E-49    9.667903E-50    5.099641E-50    2.708554E-50    1.448921E-50    7.808692E-51    4.240851E-51    2.321555E-51    1.281329E-51    7.131710E-52    4.003725E-52    2.267504E-52    1.295718E-52    7.471497E-53    4.347958E-53    2.553755E-53    1.513962E-53    9.059620E-54    5.472413E-54    3.336852E-54    2.054005E-54    1.276411E-54    8.007887E-55    5.072157E-55    3.243540E-55    2.094140E-55    1.365113E-55    8.985319E-56    5.972162E-56    4.008625E-56    2.717366E-56    1.860429E-56    1.286542E-56    8.987254E-57    6.342969E-57    4.523187E-57    3.259051E-57    2.372820E-57    1.746077E-57    1.299272E-57    9.774168E-58    7.430751E-58    5.709068E-58    4.436886E-58    3.490938E-58    2.775351E-58    2.227931E-58    1.811019E-58    1.493992E-58    1.241086E-58    1.039871E-58    8.929197E-59    7.609887E-59    6.492719E-59    5.806915E-59    4.931050E-59    4.223257E-59    3.729808E-59    3.028792E-59
1
  CONCENTRATION IN LAYER  77 AT END OF TIME STEP  73 IN STRESS PERIOD    1
  ---------------------------------------------------------------------------

 ........................................................................................................................................................................................................................................................................................................................................................................................................................................................................................................................................................................................................................................................................................................................................................................................................................................................................................................................................................................................................................................
   1      0.00000         0.00000         0.00000         0.00000         0.00000         0.00000         0.00000         0.00000         0.00000         0.00000         0.00000         0.00000         0.00000         0.00000        4.380583-306    7.960505-303    1.389787-299    2.420355-296    4.204667-293    7.286008-290    1.259320-286    2.170969-283    3.732708-280    6.400721-277    1.094583-273    1.866654-270    3.174334-267    5.382621-264    9.100483-261    1.534054-257    2.578088-254    4.319258-251    7.213521-248    1.200835-244    1.992444-241    3.294759-238    5.429517-235    8.915841-232    1.458774-228    2.377919-225    3.861403-222    6.245758-219    1.006159-215    1.614117-212    2.578295-209    4.100121-206    6.490227-203    1.022468-199    1.602831-196    2.499709-193    3.877601-190    5.981493-187    9.173212-184    1.398240-180    2.117697-177    3.185884-174    4.759158-171    7.056693-168    1.038163-164    1.514711-161    2.190698-158    3.139018-155    4.453612-152    6.252648-149    8.680590-146    1.190806-142    1.612808-139    2.154683-136    2.836724-133    3.676358-130    4.684648-127    5.861903-124    7.192769-121    8.641456-118    1.014819-114    1.162818-111    1.297471-108    1.406725-105    1.478514-102    1.502570E-99    1.472403E-96    1.387024E-93    1.251911E-90    1.078789E-87    8.840531E-85    6.860502E-82    5.018404E-79    3.442942E-76    2.203341E-73    1.307529E-70    7.149074E-68    3.576481E-65    1.624827E-62    6.649607E-60    2.430396E-57    7.861271E-55    2.229043E-52    5.487006E-50    1.161250E-47    2.093009E-45    3.183642E-43    4.051507E-41    4.278163E-39    3.720658E-37    2.648833E-35    1.535995E-33    7.222621E-32    2.742127E-30    8.359895E-29    2.031541E-27    3.911975E-26    5.955237E-25    7.138551E-24    6.667466E-23    4.857155E-22    2.737988E-21    1.192311E-20    4.013320E-20    1.046887E-19    2.133331E-19    3.477062E-19    4.665688E-19    5.295657E-19    5.202716E-19    4.509336E-19    3.502446E-19    2.469703E-19    1.598287E-19    9.580804E-20    5.361812E-20    2.820626E-20    1.403091E-20    6.634380E-21    2.995657E-21    1.296998E-21    5.404141E-22    2.174063E-22    8.469278E-23    3.203261E-23    1.179067E-23    4.232651E-24    1.484746E-24    5.098177E-25    1.716271E-25    5.672646E-26    1.843218E-26    5.894806E-27    1.857493E-27    5.772595E-28    1.770859E-28    5.366791E-29    1.607981E-29    4.766211E-30    1.398480E-30    4.064181E-31    1.170430E-31    3.341780E-32    9.463633E-33    2.659245E-33    7.417179E-34    2.054219E-34    5.650919E-35    1.544482E-35    4.195232E-36    1.132789E-36    3.041343E-37    8.120850E-38    2.156992E-38    5.700224E-39    1.499039E-39    3.923632E-40    1.022331E-40    2.652130E-41    6.851388E-42    1.763064E-42    4.522705E-43    1.159856E-43    3.007351E-44    8.224404E-45    2.691502E-45    1.285026E-45    9.056810E-46    7.707063E-46    6.862316E-46    6.077706E-46    5.283632E-46    4.498838E-46    3.755398E-46    3.078963E-46    2.484519E-46    1.977095E-46    1.554178E-46    1.208464E-46    9.302659E-47    7.092911E-47    5.357397E-47    4.008563E-47    2.971080E-47    2.181563E-47    1.587395E-47    1.145344E-47    8.202475E-48    5.838599E-48    4.138171E-48    2.927055E-48    2.072068E-48    1.473227E-48    1.056858E-48    7.696783E-49    5.739163E-49    4.441922E-49    3.738564E-49    4.442663E-49    1.141430E-48    4.343513E-48    1.576471E-47    5.022687E-47    1.422771E-46    3.672029E-46    8.833511E-46    2.020660E-45    4.475478E-45    9.766305E-45    2.138430E-44    4.811335E-44    1.219694E-43    7.669655E-43    2.524838E-41    1.169654E-39    5.137625E-38    2.055769E-36    7.373194E-35    2.329477E-33    6.347799E-32    1.453541E-30    2.707668E-29    3.943114E-28    4.287073E-27    3.331184E-26    1.813493E-25    7.048046E-25    2.041072E-24    4.615530E-24    8.491774E-24    1.314543E-23    1.759058E-23    2.079576E-23    2.210874E-23    2.144836E-23    1.921972E-23    1.607171E-23    1.265026E-23    9.442044E-24    6.725324E-24    4.596340E-24    3.028409E-24    1.931533E-24    1.196814E-24    7.226749E-25    4.264195E-25    2.464615E-25    1.398277E-25    7.801445E-26    4.287509E-26    2.324406E-26    1.244665E-26    6.590539E-27    3.454283E-27    1.793725E-27    9.235614E-28    4.718486E-28    2.393589E-28    1.206317E-28    6.043232E-29    3.010801E-29    1.492417E-29    7.363211E-30    3.617197E-30    1.769909E-30    8.628552E-31    4.192350E-31    2.030604E-31    9.807269E-32    4.724181E-32    2.270150E-32    1.088480E-32    5.208435E-33    2.487677E-33    1.186193E-33    5.647580E-34    2.685238E-34    1.275210E-34    6.049519E-35    2.867218E-35    1.357872E-35    6.426448E-36    3.039846E-36    1.437319E-36    6.794021E-37    3.210870E-37    1.517363E-37    7.170919E-38    3.389423E-38    1.602464E-38    7.578936E-39    3.586164E-39    1.697847E-39    8.043736E-40    3.813743E-40    1.809769E-40    8.596402E-41    4.087668E-41    1.946004E-41    9.276090E-42    4.427760E-42    2.116634E-42    1.013434E-42    4.860480E-43    2.335306E-43    1.124182E-43    5.422584E-44    2.621215E-44    1.269921E-44    6.167106E-45    3.002415E-45    1.465551E-45    7.173482E-46    3.521426E-46    1.733920E-46    8.565005E-47    4.245047E-47    2.111378E-47    1.054032E-47    5.282325E-48    2.658053E-48    1.343250E-48    6.818628E-49    3.477609E-49    1.782419E-49    9.183131E-50    4.757022E-50    2.478329E-50    1.298918E-50    6.850582E-51    3.636827E-51    1.944002E-51    1.046601E-51    5.676861E-52    3.103203E-52    1.710080E-52    9.502834E-53    5.326473E-53    3.012235E-53    1.719115E-53    9.903376E-54    5.759832E-54    3.382669E-54    2.006305E-54    1.201924E-54    7.273565E-55    4.446832E-55    2.746797E-55    1.714391E-55    1.081262E-55    6.891490E-56    4.438916E-56    2.889636E-56    1.901243E-56    1.264420E-56    8.500352E-57    5.777083E-57    3.969543E-57    2.757860E-57    1.937544E-57    1.376677E-57    9.894078E-58    7.193467E-58    5.291573E-58    3.939072E-58    2.967993E-58    2.264245E-58    1.749169E-58    1.368415E-58    1.084343E-58    8.707637E-59    7.090291E-59    5.851815E-59    4.894498E-59    4.153827E-59    3.581949E-59    3.130208E-59    2.771843E-59    2.502169E-59    2.277203E-59    2.090229E-59    1.973213E-59    1.846716E-59    1.749724E-59    1.767361E-59    1.799537E-59
1
  CONCENTRATION IN LAYER  78 AT END OF TIME STEP  73 IN STRESS PERIOD    1
  ---------------------------------------------------------------------------

 ........................................................................................................................................................................................................................................................................................................................................................................................................................................................................................................................................................................................................................................................................................................................................................................................................................................................................................................................................................................................................................................
   1      0.00000         0.00000         0.00000         0.00000         0.00000         0.00000         0.00000         0.00000         0.00000         0.00000         0.00000         0.00000         0.00000         0.00000        5.917465-308    1.615866-304    2.818464-301    4.898626-298    8.492813-295    1.468683-291    2.533300-288    4.358227-285    7.477894-282    1.279606-278    2.183639-275    3.715979-272    6.305680-269    1.066928-265    1.799945-262    3.027476-259    5.076614-256    8.486193-253    1.414064-249    2.348622-246    3.887891-243    6.414148-240    1.054515-236    1.727504-233    2.819666-230    4.585083-227    7.427158-224    1.198329-220    1.925559-217    3.081124-214    4.908792-211    7.785556-208    1.229096-204    1.931033-201    3.018713-198    4.694571-195    7.261380-192    1.116840-188    1.707661-185    2.594973-182    3.917924-179    5.875310-176    8.747924-173    1.292745-169    1.895282-166    2.755443-163    3.970554-160    5.667861-157    8.010151-154    1.120051-150    1.548483-147    2.115026-144    2.851702-141    3.792075-138    4.968247-135    6.406379-132    8.120674-129    1.010605-125    1.233022-122    1.472632-119    1.718809-116    1.956953-113    2.169172-110    2.335790-107    2.437704-104    2.459418-101    2.392148E-98    2.236380E-95    2.003048E-92    1.712742E-89    1.392787E-86    1.072672E-83    7.789056E-81    5.306654E-78    3.374281E-75    1.991053E-72    1.083527E-69    5.401951E-67    2.449578E-64    1.002559E-61    3.673094E-59    1.194207E-56    3.414337E-54    8.504564E-52    1.828163E-49    3.359910E-47    5.231389E-45    6.839645E-43    7.445551E-41    6.696690E-39    4.943864E-37    2.979006E-35    1.457647E-33    5.762470E-32    1.829364E-30    4.628409E-29    9.276140E-28    1.468363E-26    1.827385E-25    1.769848E-24    1.334362E-23    7.770691E-23    3.489228E-22    1.208778E-21    3.240061E-21    6.777020E-21    1.132499E-20    1.556167E-20    1.806460E-20    1.812903E-20    1.603239E-20    1.269256E-20    9.114131E-21    6.001587E-21    3.658027E-21    2.080290E-21    1.111462E-21    5.612723E-22    2.693120E-22    1.233581E-22    5.416357E-23    2.288105E-23    9.330493E-24    3.683619E-24    1.411682E-24    5.264120E-25    1.914137E-25    6.800155E-26    2.364403E-26    8.058728E-27    2.696332E-27    8.867544E-28    2.869886E-28    9.149945E-29    2.876626E-29    8.925657E-30    2.735489E-30    8.286736E-31    2.482983E-31    7.363244E-32    2.162274E-32    6.290997E-33    1.814256E-33    5.188418E-34    1.471978E-34    4.144356E-35    1.158377E-35    3.215270E-36    8.865168E-37    2.428723E-37    6.613047E-38    1.790040E-38    4.817915E-39    1.289685E-39    3.434183E-40    9.098322E-41    2.398699E-41    6.294218E-42    1.644112E-42    4.275799E-43    1.107348E-43    2.856799E-44    7.349058E-45    1.892031E-45    4.944448E-46    1.379837E-46    4.724502E-47    2.381381E-47    1.715135E-47    1.449176E-47    1.268874E-47    1.103415E-47    9.425649E-48    7.896762E-48    6.495793E-48    5.256081E-48    4.191674E-48    3.300548E-48    2.569788E-48    1.980560E-48    1.511996E-48    1.143748E-48    8.573833E-49    6.369369E-49    4.689537E-49    3.422839E-49    2.477940E-49    1.780782E-49    1.271966E-49    9.044704E-50    6.416143E-50    4.552533E-50    3.241624E-50    2.326168E-50    1.691747E-50    1.256712E-50    9.654051E-51    7.973140E-51    8.805590E-51    2.033438E-50    7.540144E-50    2.779104E-49    9.085171E-49    2.648479E-48    7.042169E-48    1.746105E-47    4.117491E-47    9.400682E-47    2.114139E-46    4.769371E-46    1.108341E-45    3.078322E-45    2.855732E-44    1.095029E-42    4.999391E-41    2.134411E-39    8.289557E-38    2.884771E-36    8.844500E-35    2.340581E-33    5.213581E-32    9.476255E-31    1.353443E-29    1.454798E-28    1.129995E-27    6.223044E-27    2.470444E-26    7.355231E-26    1.716464E-25    3.265468E-25    5.231429E-25    7.245667E-25    8.863074E-25    9.743591E-25    9.766743E-25    9.034637E-25    7.791356E-25    6.318344E-25    4.853828E-25    3.554758E-25    2.495503E-25    1.687293E-25    1.103317E-25    7.002482E-26    4.327270E-26    2.610873E-26    1.541775E-26    8.929921E-27    5.082575E-27    2.847431E-27    1.572523E-27    8.572037E-28    4.617648E-28    2.460702E-28    1.298383E-28    6.789124E-29    3.520607E-29    1.811789E-29    9.258676E-30    4.700909E-30    2.372602E-30    1.190907E-30    5.947333E-31    2.956148E-31    1.462996E-31    7.211339E-32    3.541408E-32    1.733189E-32    8.455511E-33    4.113057E-33    1.995358E-33    9.656109E-34    4.662276E-34    2.246427E-34    1.080351E-34    5.186713E-35    2.486259E-35    1.190136E-35    5.689964E-36    2.717371E-36    1.296512E-36    6.180902E-37    2.944640E-37    1.402082E-37    6.673132E-38    3.175074E-38    1.510418E-38    7.184728E-39    3.417764E-39    1.626077E-39    7.738461E-40    3.684084E-40    1.754737E-40    8.362725E-41    3.988247E-41    1.903529E-41    9.093372E-42    4.348335E-42    2.081603E-42    9.976878E-43    4.788039E-43    2.301082E-43    1.107549E-43    5.339444E-44    2.578561E-44    1.247538E-44    6.047456E-45    2.937529E-45    1.429986E-45    6.977047E-46    3.412351E-46    1.673135E-46    8.225420E-47    4.055007E-47    2.004888E-47    9.942923E-48    4.946831E-48    2.469421E-48    1.237051E-48    6.219803E-49    3.139341E-49    1.590937E-49    8.096634E-50    4.138867E-50    2.125580E-50    1.096961E-50    5.690183E-51    2.967509E-51    1.556334E-51    8.210669E-52    4.358570E-52    2.328785E-52    1.252765E-52    6.787397E-53    3.704870E-53    2.038088E-53    1.130309E-53    6.321786E-54    3.566904E-54    2.030902E-54    1.167250E-54    6.773935E-55    3.970423E-55    2.351033E-55    1.406711E-55    8.506774E-56    5.200203E-56    3.213993E-56    2.008653E-56    1.269576E-56    8.116258E-57    5.248567E-57    3.433638E-57    2.272681E-57    1.522072E-57    1.031543E-57    7.075197E-58    4.911720E-58    3.451627E-58    2.455657E-58    1.769008E-58    1.290571E-58    9.536788E-59    7.139761E-59    5.416702E-59    4.165587E-59    3.248201E-59    2.568991E-59    2.061437E-59    1.678912E-59    1.388518E-59    1.166751E-59    9.963743E-60    8.649911E-60    7.639954E-60    6.871901E-60    6.290720E-60    5.859693E-60    5.565291E-60    5.367342E-60    5.248055E-60    5.232774E-60    5.232188E-60    5.232566E-60    5.185867E-60    4.036195E-60
1
  CONCENTRATION IN LAYER  79 AT END OF TIME STEP  73 IN STRESS PERIOD    1
  ---------------------------------------------------------------------------

 ........................................................................................................................................................................................................................................................................................................................................................................................................................................................................................................................................................................................................................................................................................................................................................................................................................................................................................................................................................................................................................................
   1      0.00000         0.00000         0.00000         0.00000         0.00000         0.00000         0.00000         0.00000         0.00000         0.00000         0.00000         0.00000         0.00000         0.00000         0.00000        2.475060-306    4.796409-303    8.310658-300    1.436282-296    2.475870-293    4.256792-290    7.299369-287    1.248297-283    2.128927-280    3.620711-277    6.140396-274    1.038357-270    1.750742-267    2.943061-264    4.932344-261    8.240594-258    1.372422-254    2.278307-251    3.769659-248    6.216208-245    1.021525-241    1.672773-238    2.729304-235    4.436632-232    7.184539-229    1.158892-225    1.861816-222    2.978711-219    4.745282-216    7.526236-213    1.188260-209    1.867212-206    2.919778-203    4.542547-200    7.030000-197    1.081991-193    1.655778-190    2.518722-187    3.807486-184    5.718027-181    8.528294-178    1.262794-174    1.855623-171    2.704902-168    3.909486-165    5.599864-162    7.944919-159    1.115831-155    1.550331-152    2.129421-149    2.889191-146    3.869059-143    5.109189-140    6.646356-137    8.508022-134    1.070465-130    1.322072-127    1.600536-124    1.896438-121    2.195593-118    2.479236-115    2.725096-112    2.909470-109    3.010259-106    3.010643-103    2.902642-100    2.689767E-97    2.387999E-94    2.024158E-91    1.631980E-88    1.246467E-85    8.979161E-83    6.071813E-80    3.834441E-77    2.248965E-74    1.217776E-71    6.048705E-69    2.736950E-66    1.119868E-63    4.110921E-61    1.342654E-58    3.867690E-56    9.738304E-54    2.123565E-51    3.973649E-49    6.322413E-47    8.477256E-45    9.496546E-43    8.817897E-41    6.739275E-39    4.213286E-37    2.142368E-35    8.809200E-34    2.909790E-32    7.661084E-31    1.597727E-29    2.630071E-28    3.399607E-27    3.416558E-26    2.668550E-25    1.607516E-24    7.454504E-24    2.662829E-23    7.349914E-23    1.581692E-22    2.717095E-22    3.834383E-22    4.566797E-22    4.697717E-22    4.254562E-22    3.446716E-22    2.530858E-22    1.703146E-22    1.060325E-22    6.156408E-23    3.356930E-23    1.729500E-23    8.464000E-24    3.953195E-24    1.769485E-24    7.618686E-25    3.165795E-25    1.273323E-25    4.970474E-26    1.887526E-26    6.987996E-27    2.527043E-27    8.941831E-28    3.100802E-28    1.055285E-28    3.529139E-29    1.161113E-29    3.762214E-30    1.201682E-30    3.786949E-31    1.178382E-31    3.623205E-32    1.101527E-32    3.313259E-33    9.865370E-34    2.909310E-34    8.501366E-35    2.462619E-35    7.074398E-36    2.016167E-36    5.702405E-37    1.601119E-37    4.464304E-38    1.236432E-38    3.402417E-39    9.304936E-40    2.529584E-40    6.837393E-41    1.837928E-41    4.914158E-42    1.307176E-42    3.459888E-43    9.113968E-44    2.389700E-44    6.237991E-45    1.621456E-45    4.198631E-46    1.084458E-46    2.807367E-47    7.416177E-48    2.125190E-48    7.681302E-49    4.100602E-49    3.014802E-49    2.529458E-49    2.179826E-49    1.863167E-49    1.565549E-49    1.291875E-49    1.048191E-49    8.377309E-50    6.606893E-50    5.149985E-50    3.972548E-50    3.035010E-50    2.297733E-50    1.724228E-50    1.282602E-50    9.458769E-51    6.916977E-51    5.017930E-51    3.613879E-51    2.586595E-51    1.842573E-51    1.308846E-51    9.293250E-52    6.615820E-52    4.740576E-52    3.436789E-52    2.538895E-52    1.932604E-52    1.565791E-52    1.617030E-52    3.330967E-52    1.186852E-51    4.407830E-51    1.469593E-50    4.383187E-50    1.193659E-49    3.032373E-49    7.326818E-49    1.713844E-48    3.948023E-48    9.122153E-48    2.182820E-47    6.881775E-47    9.363669E-46    3.889075E-44    1.735908E-42    7.190645E-41    2.707575E-39    9.135347E-38    2.716773E-36    6.981265E-35    1.512953E-33    2.684255E-32    3.761712E-31    3.998698E-30    3.104418E-29    1.728635E-28    7.005496E-28    2.143386E-27    5.161237E-27    1.015549E-26    1.684792E-26    2.417670E-26    3.064169E-26    3.489291E-26    3.621134E-26    3.465812E-26    3.090191E-26    2.588820E-26    2.052754E-26    1.550355E-26    1.121385E-26    7.804857E-27    5.248736E-27    3.422867E-27    2.171414E-27    1.343745E-27    8.131545E-28    4.822211E-28    2.807779E-28    1.607889E-28    9.069346E-29    5.045475E-29    2.771732E-29    1.505172E-29    8.087634E-30    4.303589E-30    2.269607E-30    1.187095E-30    6.161861E-31    3.176003E-31    1.626380E-31    8.278381E-32    4.190283E-32    2.110054E-32    1.057449E-32    5.275861E-33    2.621414E-33    1.297530E-33    6.399733E-34    3.146178E-34    1.542020E-34    7.536732E-35    3.674166E-35    1.786932E-35    8.671950E-36    4.200172E-36    2.030660E-36    9.801709E-37    4.724245E-37    2.274039E-37    1.093363E-37    5.251644E-38    2.520302E-38    1.208637E-38    5.792728E-39    2.775046E-39    1.328960E-39    6.362996E-40    3.046291E-40    1.458452E-40    6.983514E-41    3.344768E-41    1.602568E-41    7.681978E-42    3.684536E-42    1.768448E-42    8.494689E-43    4.084083E-43    1.965527E-43    9.469923E-44    4.568171E-44    2.206542E-44    1.067338E-44    5.170791E-45    2.509133E-45    1.219688E-45    5.939892E-46    2.898420E-46    1.417245E-46    6.945103E-47    3.411243E-47    1.679570E-47    8.290620E-48    4.103303E-48    2.036540E-48    1.013730E-48    5.061523E-49    2.535308E-49    1.274192E-49    6.426297E-50    3.252953E-50    1.652949E-50    8.433000E-51    4.320429E-51    2.223202E-51    1.149287E-51    5.969939E-52    3.116764E-52    1.635823E-52    8.633337E-53    4.582989E-53    2.447770E-53    1.315752E-53    7.120266E-54    3.880420E-54    2.130438E-54    1.178741E-54    6.574791E-55    3.698421E-55    2.098840E-55    1.202066E-55    6.950539E-56    4.058833E-56    2.394545E-56    1.427658E-56    8.604743E-57    5.244327E-57    3.232932E-57    2.016352E-57    1.272614E-57    8.129721E-58    5.257537E-58    3.442619E-58    2.282776E-58    1.533096E-58    1.042963E-58    7.188240E-59    5.019849E-59    3.552530E-59    2.548206E-59    1.852926E-59    1.366136E-59    1.021499E-59    7.748226E-60    5.963720E-60    4.659379E-60    3.696542E-60    2.979176E-60    2.440219E-60    2.032457E-60    1.722402E-60    1.486117E-60    1.306296E-60    1.170509E-60    1.070046E-60    9.988511E-61    9.522597E-61    9.271751E-61    9.224129E-61    9.355755E-61    9.646060E-61    1.008728E-60    1.054092E-60    1.077981E-60    1.028484E-60    7.929795E-61
1
  CONCENTRATION IN LAYER  80 AT END OF TIME STEP  73 IN STRESS PERIOD    1
  ---------------------------------------------------------------------------

 ........................................................................................................................................................................................................................................................................................................................................................................................................................................................................................................................................................................................................................................................................................................................................................................................................................................................................................................................................................................................................................................
   1      0.00000         0.00000         0.00000         0.00000         0.00000         0.00000         0.00000         0.00000         0.00000         0.00000         0.00000         0.00000         0.00000         0.00000         0.00000        2.467233-308    6.839543-305    1.183551-301    2.035917-298    3.492898-295    5.976506-292    1.019824-288    1.735402-285    2.944770-282    4.982622-279    8.406165-276    1.413997-272    2.371298-269    3.964475-266    6.607262-263    1.097656-259    1.817574-256    2.999634-253    4.933600-250    8.086224-247    1.320622-243    2.148947-240    3.483755-237    5.626040-234    9.049966-231    1.449883-227    2.313184-224    3.674730-221    5.811939-218    9.150299-215    1.433845-211    2.235892-208    3.469003-205    5.354038-202    8.218499-199    1.254417-195    1.903381-192    2.870331-189    4.300700-186    6.400519-183    9.458388-180    1.387361-176    2.019126-173    2.914440-170    4.170278-167    5.912557-164    8.301362-161    1.153531-157    1.585381-154    2.153559-151    2.889116-148    3.824679-145    4.991728-142    6.416550-139    8.114789-136    1.008478-132    1.230021-129    1.470312-126    1.719879-123    1.965445-120    2.190383-117    2.375912-114    2.503074-111    2.555367-108    2.521698-105    2.398962-102    2.193694E-99    1.922165E-96    1.608392E-93    1.280519E-90    9.661701E-88    6.879220E-85    4.600595E-82    2.875651E-79    1.671012E-76    8.975110E-74    4.428188E-71    1.993665E-68    8.132656E-66    2.983198E-63    9.761725E-61    2.825663E-58    7.172601E-56    1.582374E-53    3.006616E-51    4.875713E-49    6.687919E-47    7.692384E-45    7.358969E-43    5.812492E-41    3.765230E-39    1.987749E-37    8.497810E-36    2.920932E-34    8.008364E-33    1.740050E-31    2.983932E-30    4.015414E-29    4.199448E-28    3.409716E-27    2.133116E-26    1.026182E-25    3.798675E-25    1.085655E-24    2.418084E-24    4.297550E-24    6.271397E-24    7.719642E-24    8.202690E-24    7.669977E-24    6.412468E-24    4.857402E-24    3.371038E-24    2.163733E-24    1.294898E-24    7.276009E-25    3.862042E-25    1.946793E-25    9.363489E-26    4.314915E-26    1.912149E-26    8.175419E-27    3.382262E-27    1.357533E-27    5.298565E-28    2.015328E-28    7.484030E-29    2.718123E-29    9.669749E-30    3.374258E-30    1.156393E-30    3.896661E-31    1.292380E-31    4.222880E-32    1.360572E-32    4.325835E-33    1.358210E-33    4.214043E-34    1.292795E-34    3.923756E-35    1.178800E-35    3.507129E-36    1.033783E-36    3.020313E-37    8.749564E-38    2.514134E-38    7.168095E-39    2.028473E-39    5.699191E-40    1.590219E-40    4.407722E-41    1.213929E-41    3.322743E-42    9.041103E-43    2.446018E-43    6.581117E-44    1.761267E-44    4.689398E-45    1.242375E-45    3.275728E-46    8.597320E-47    2.246603E-47    5.848293E-48    1.519168E-48    3.962278E-49    1.061235E-49    3.136647E-50    1.198689E-50    6.728750E-51    5.016302E-51    4.171527E-51    3.539162E-51    2.975767E-51    2.461826E-51    2.002646E-51    1.603923E-51    1.266859E-51    9.884296E-52    7.628313E-52    5.829356E-52    4.413824E-52    3.312682E-52    2.464914E-52    1.818611E-52    1.330693E-52    9.659871E-53    6.961193E-53    4.984429E-53    3.550802E-53    2.520915E-53    1.787565E-53    1.269538E-53    9.062731E-54    6.533497E-54    4.787562E-54    3.601591E-54    2.857669E-54    2.769674E-54    5.046588E-54    1.697957E-53    6.292544E-53    2.123904E-52    6.435123E-52    1.781774E-51    4.602684E-51    1.130651E-50    2.688052E-50    6.291289E-50    1.476957E-49    3.627483E-49    1.359396E-48    2.587672E-47    1.107652E-45    4.796095E-44    1.919281E-42    6.980795E-41    2.276208E-39    6.548182E-38    1.630333E-36    3.431831E-35    5.936469E-34    8.157297E-33    8.571787E-32    6.649506E-31    3.743173E-30    1.548919E-29    4.873726E-29    1.212675E-28    2.473059E-28    4.260309E-28    6.355337E-28    8.378324E-28    9.926038E-28    1.071635E-27    1.066709E-27    9.887044E-28    8.605295E-28    7.084004E-28    5.550184E-28    4.160930E-28    2.998894E-28    2.086378E-28    1.406169E-28    9.209936E-29    5.878260E-29    3.664979E-29    2.236970E-29    1.339197E-29    7.877036E-30    4.559035E-30    2.599939E-30    1.462720E-30    8.127193E-31    4.464051E-31    2.426125E-31    1.305698E-31    6.963644E-32    3.682854E-32    1.932645E-32    1.006891E-32    5.210734E-33    2.679834E-33    1.370250E-33    6.968692E-34    3.526354E-34    1.776138E-34    8.907297E-35    4.449052E-35    2.213943E-35    1.097894E-35    5.427014E-36    2.674685E-36    1.314604E-36    6.444993E-37    3.152424E-37    1.538675E-37    7.495678E-38    3.645146E-38    1.769839E-38    8.581029E-39    4.155287E-39    2.009951E-39    9.713086E-40    4.690063E-40    2.263135E-40    1.091468E-40    5.261842E-41    2.535983E-41    1.222056E-41    5.888772E-42    2.837917E-42    1.367940E-42    6.595940E-43    3.181839E-43    1.535748E-43    7.417379E-44    3.585230E-44    1.734471E-44    8.399381E-45    4.071969E-45    1.976447E-45    9.605846E-46    4.675225E-46    2.278937E-46    1.112684E-46    5.442115E-47    2.666660E-47    1.309240E-47    6.441262E-48    3.175936E-48    1.569537E-48    7.775367E-49    3.861639E-49    1.922989E-49    9.602642E-50    4.809161E-50    2.415851E-50    1.217455E-50    6.155729E-51    3.123303E-51    1.590464E-51    8.129777E-52    4.172074E-52    2.149913E-52    1.112670E-52    5.784612E-53    3.021583E-53    1.586145E-53    8.369513E-54    4.440311E-54    2.369168E-54    1.271650E-54    6.868393E-55    3.734158E-55    2.044189E-55    1.127165E-55    6.262477E-56    3.507170E-56    1.980543E-56    1.128231E-56    6.485905E-57    3.764228E-57    2.206423E-57    1.306721E-57    7.822211E-58    4.734736E-58    2.898966E-58    1.796081E-58    1.126392E-58    7.152695E-59    4.600361E-59    2.997589E-59    1.979328E-59    1.324733E-59    8.988692E-60    6.184578E-60    4.315720E-60    3.054992E-60    2.194154E-60    1.599247E-60    1.183187E-60    8.887715E-61    6.780313E-61    5.255029E-61    4.139309E-61    3.315050E-61    2.700649E-61    2.239233E-61    1.890847E-61    1.627220E-61    1.428270E-61    1.279706E-61    1.171474E-61    1.096726E-61    1.051073E-61    1.031863E-61    1.037984E-61    1.069867E-61    1.127877E-61    1.211442E-61    1.316809E-61    1.424303E-61    1.488844E-61    1.428006E-61    1.174677E-61

 CONCENTRATION WILL BE SAVED ON UNIT 1024 AT END OF TIME STEP   73, STRESS PERIOD    1


  SFR-1 BUDGET FOR ENTIRE MODEL AT END OF TIME STEP   73, STRESS PERIOD   1
  ------------------------------------------------------------------------------

     CUMULATIVE SFR-1      M       RATES FOR THIS TIME STEP      M/T
     ------------------                 ------------------------

           IN:                                      IN:
           ---                                      ---
                 GWF =           0.0000                   GWF =           0.0000
            RAINFALL =           0.0000              RAINFALL =           0.0000
         EVAPORATION =           0.0000           EVAPORATION =           0.0000
              RUNOFF =           0.0000                RUNOFF =           0.0000
          EXT-INFLOW =       31536.0000            EXT-INFLOW =          43.2000
         EXT-OUTFLOW =           0.0000           EXT-OUTFLOW =           0.0000
             STORAGE =           0.0000               STORAGE =           0.0000
            CONSTANT =           0.0000              CONSTANT =           0.0000

            TOTAL IN =       31536.0000              TOTAL IN =          43.2000

          OUT:                                     OUT:
          ----                                     ----
                 GWF =       31536.0000                   GWF =          43.2000
            RAINFALL =           0.0000              RAINFALL =           0.0000
         EVAPORATION =           0.0000           EVAPORATION =           0.0000
              RUNOFF =           0.0000                RUNOFF =           0.0000
          EXT-INFLOW =           0.0000            EXT-INFLOW =           0.0000
         EXT-OUTFLOW =           0.0000           EXT-OUTFLOW =           0.0000
             STORAGE =       2.7756E-16               STORAGE =           0.0000
            CONSTANT =           0.0000              CONSTANT =           0.0000

           TOTAL OUT =       31536.0000             TOTAL OUT =          43.2000

            IN - OUT =           0.0000              IN - OUT =           0.0000

 PERCENT DISCREPANCY =           0.00     PERCENT DISCREPANCY =           0.00



  MASS BUDGET FOR ENTIRE MODEL AT END OF TIME STEP   73, STRESS PERIOD   1
  ---------------------------------------------------------------------------------------------------

     CUMULATIVE MASS      M       RATES FOR THIS TIME STEP      M/T          PACKAGE NAME    
     ------------------                 ------------------------                     ----------------

           IN:                                      IN:
           ---                                      ---
     STORAGE-AQUEOUS =       3.0274E-13       STORAGE-AQUEOUS =       5.5582E-16     MST             
               RCH-1 =           0.0000                 RCH-1 =           0.0000     SSM             
               CHD-1 =           0.0000                 CHD-1 =           0.0000     SSM             
     FLOW-CORRECTION =       8.5247E-06       FLOW-CORRECTION =       7.6729E-08                     
                 SFT =       31536.0000                   SFT =          43.2000     SFR-1           

            TOTAL IN =       31536.0000              TOTAL IN =          43.2000

          OUT:                                     OUT:
          ----                                     ----
     STORAGE-AQUEOUS =       31535.9996       STORAGE-AQUEOUS =          43.2000     MST             
               RCH-1 =           0.0000                 RCH-1 =           0.0000     SSM             
               CHD-1 =       5.5018E-57                 CHD-1 =       3.5815E-58     SSM             
     FLOW-CORRECTION =       3.5634E-04       FLOW-CORRECTION =       8.8298E-07                     
                 SFT =           0.0000                   SFT =           0.0000     SFR-1           

           TOTAL OUT =       31536.0000             TOTAL OUT =          43.2000

            IN - OUT =       9.1399E-06              IN - OUT =       6.7644E-12

 PERCENT DISCREPANCY =           0.00     PERCENT DISCREPANCY =           0.00




         TIME SUMMARY AT END OF TIME STEP   73 IN STRESS PERIOD    1
                    SECONDS     MINUTES      HOURS       DAYS        YEARS
                    -----------------------------------------------------------
   TIME STEP LENGTH 8.64000E+05  14400.      240.00      10.000     2.73785E-02
 STRESS PERIOD TIME 6.30720E+07 1.05120E+06  17520.      730.00      1.9986    
         TOTAL TIME 6.30720E+07 1.05120E+06  17520.      730.00      1.9986    


end timestep


start timestep kper="2" kstp="1" mode="normal"


 BEGIN READING OUTPUT CONTROL FOR STRESS PERIOD 2
      THE FOLLOWING STEPS WILL BE SAVED: 27 227 
      THE LAST TIME STEP WILL BE SAVED
      THE FOLLOWING FREQUENCY WILL BE SAVED: 10

 END READING OUTPUT CONTROL FOR STRESS PERIOD 2

 SFT PACKAGE (SFR-1) DATA FOR PERIOD      2
 ---------------------------------------------------------------
   NUMBER   KEYWORD                  VALUE 1         VALUE 2    
 ---------------------------------------------------------------
     1      INFLOW                     0.0                      
 ---------------------------------------------------------------



 FMI READING BUDGET TERMS FOR KSTP 1 KPER 2
    30000.0        FLOW-JA-FACE                 
    30000.0          DATA-SPDIS NPF             
    30000.0            DATA-SAT NPF             
    30000.0                 RCH RCH-1           
    30000.0                 CHD CHD-1           
    30000.0                 SFR SFR-1           

 FMI READING HEAD FOR KSTP 1 KPER 2

 SFR-1            READING BUDGET TERMS FOR KSTP 1 KPER 2
    30000.0        FLOW-JA-FACE SFR-1           
    30000.0                 GWF FLOW            
    30000.0            RAINFALL SFR-1           
    30000.0         EVAPORATION SFR-1           
    30000.0              RUNOFF SFR-1           
    30000.0          EXT-INFLOW SFR-1           
    30000.0         EXT-OUTFLOW SFR-1           
    30000.0             STORAGE SFR-1           
    30000.0           AUXILIARY SFR-1           

end timestep


start timestep kper="2" kstp="2" mode="normal"


 FMI SETTING BUDGET TERMS FOR KSTP 2 AND KPER 2 TO BUDGET FILE TERMS FROM KSTP 1 AND KPER 2

 FMI SETTING HEAD FOR KSTP 2 AND KPER 2 TO BINARY FILE HEADS FROM KSTP 1 AND KPER 2

 SFR-1 SETTING BUDGET TERMS FOR KSTP 2 AND KPER 2 TO BUDGET FILE TERMS FROM KSTP 1 AND KPER 2

end timestep


start timestep kper="2" kstp="3" mode="normal"


 FMI SETTING BUDGET TERMS FOR KSTP 3 AND KPER 2 TO BUDGET FILE TERMS FROM KSTP 1 AND KPER 2

 FMI SETTING HEAD FOR KSTP 3 AND KPER 2 TO BINARY FILE HEADS FROM KSTP 1 AND KPER 2

 SFR-1 SETTING BUDGET TERMS FOR KSTP 3 AND KPER 2 TO BUDGET FILE TERMS FROM KSTP 1 AND KPER 2

end timestep


start timestep kper="2" kstp="4" mode="normal"


 FMI SETTING BUDGET TERMS FOR KSTP 4 AND KPER 2 TO BUDGET FILE TERMS FROM KSTP 1 AND KPER 2

 FMI SETTING HEAD FOR KSTP 4 AND KPER 2 TO BINARY FILE HEADS FROM KSTP 1 AND KPER 2

 SFR-1 SETTING BUDGET TERMS FOR KSTP 4 AND KPER 2 TO BUDGET FILE TERMS FROM KSTP 1 AND KPER 2

end timestep


start timestep kper="2" kstp="5" mode="normal"


 FMI SETTING BUDGET TERMS FOR KSTP 5 AND KPER 2 TO BUDGET FILE TERMS FROM KSTP 1 AND KPER 2

 FMI SETTING HEAD FOR KSTP 5 AND KPER 2 TO BINARY FILE HEADS FROM KSTP 1 AND KPER 2

 SFR-1 SETTING BUDGET TERMS FOR KSTP 5 AND KPER 2 TO BUDGET FILE TERMS FROM KSTP 1 AND KPER 2

end timestep


start timestep kper="2" kstp="6" mode="normal"


 FMI SETTING BUDGET TERMS FOR KSTP 6 AND KPER 2 TO BUDGET FILE TERMS FROM KSTP 1 AND KPER 2

 FMI SETTING HEAD FOR KSTP 6 AND KPER 2 TO BINARY FILE HEADS FROM KSTP 1 AND KPER 2

 SFR-1 SETTING BUDGET TERMS FOR KSTP 6 AND KPER 2 TO BUDGET FILE TERMS FROM KSTP 1 AND KPER 2

end timestep


start timestep kper="2" kstp="7" mode="normal"


 FMI SETTING BUDGET TERMS FOR KSTP 7 AND KPER 2 TO BUDGET FILE TERMS FROM KSTP 1 AND KPER 2

 FMI SETTING HEAD FOR KSTP 7 AND KPER 2 TO BINARY FILE HEADS FROM KSTP 1 AND KPER 2

 SFR-1 SETTING BUDGET TERMS FOR KSTP 7 AND KPER 2 TO BUDGET FILE TERMS FROM KSTP 1 AND KPER 2

end timestep


start timestep kper="2" kstp="8" mode="normal"


 FMI SETTING BUDGET TERMS FOR KSTP 8 AND KPER 2 TO BUDGET FILE TERMS FROM KSTP 1 AND KPER 2

 FMI SETTING HEAD FOR KSTP 8 AND KPER 2 TO BINARY FILE HEADS FROM KSTP 1 AND KPER 2

 SFR-1 SETTING BUDGET TERMS FOR KSTP 8 AND KPER 2 TO BUDGET FILE TERMS FROM KSTP 1 AND KPER 2

end timestep


start timestep kper="2" kstp="9" mode="normal"


 FMI SETTING BUDGET TERMS FOR KSTP 9 AND KPER 2 TO BUDGET FILE TERMS FROM KSTP 1 AND KPER 2

 FMI SETTING HEAD FOR KSTP 9 AND KPER 2 TO BINARY FILE HEADS FROM KSTP 1 AND KPER 2

 SFR-1 SETTING BUDGET TERMS FOR KSTP 9 AND KPER 2 TO BUDGET FILE TERMS FROM KSTP 1 AND KPER 2

end timestep


start timestep kper="2" kstp="10" mode="normal"


 FMI SETTING BUDGET TERMS FOR KSTP 10 AND KPER 2 TO BUDGET FILE TERMS FROM KSTP 1 AND KPER 2

 FMI SETTING HEAD FOR KSTP 10 AND KPER 2 TO BINARY FILE HEADS FROM KSTP 1 AND KPER 2

 SFR-1 SETTING BUDGET TERMS FOR KSTP 10 AND KPER 2 TO BUDGET FILE TERMS FROM KSTP 1 AND KPER 2

 CONCENTRATION WILL BE SAVED ON UNIT 1024 AT END OF TIME STEP   10, STRESS PERIOD    2

end timestep


start timestep kper="2" kstp="11" mode="normal"


 FMI SETTING BUDGET TERMS FOR KSTP 11 AND KPER 2 TO BUDGET FILE TERMS FROM KSTP 1 AND KPER 2

 FMI SETTING HEAD FOR KSTP 11 AND KPER 2 TO BINARY FILE HEADS FROM KSTP 1 AND KPER 2

 SFR-1 SETTING BUDGET TERMS FOR KSTP 11 AND KPER 2 TO BUDGET FILE TERMS FROM KSTP 1 AND KPER 2

end timestep


start timestep kper="2" kstp="12" mode="normal"


 FMI SETTING BUDGET TERMS FOR KSTP 12 AND KPER 2 TO BUDGET FILE TERMS FROM KSTP 1 AND KPER 2

 FMI SETTING HEAD FOR KSTP 12 AND KPER 2 TO BINARY FILE HEADS FROM KSTP 1 AND KPER 2

 SFR-1 SETTING BUDGET TERMS FOR KSTP 12 AND KPER 2 TO BUDGET FILE TERMS FROM KSTP 1 AND KPER 2

end timestep


start timestep kper="2" kstp="13" mode="normal"


 FMI SETTING BUDGET TERMS FOR KSTP 13 AND KPER 2 TO BUDGET FILE TERMS FROM KSTP 1 AND KPER 2

 FMI SETTING HEAD FOR KSTP 13 AND KPER 2 TO BINARY FILE HEADS FROM KSTP 1 AND KPER 2

 SFR-1 SETTING BUDGET TERMS FOR KSTP 13 AND KPER 2 TO BUDGET FILE TERMS FROM KSTP 1 AND KPER 2

end timestep


start timestep kper="2" kstp="14" mode="normal"


 FMI SETTING BUDGET TERMS FOR KSTP 14 AND KPER 2 TO BUDGET FILE TERMS FROM KSTP 1 AND KPER 2

 FMI SETTING HEAD FOR KSTP 14 AND KPER 2 TO BINARY FILE HEADS FROM KSTP 1 AND KPER 2

 SFR-1 SETTING BUDGET TERMS FOR KSTP 14 AND KPER 2 TO BUDGET FILE TERMS FROM KSTP 1 AND KPER 2

end timestep


start timestep kper="2" kstp="15" mode="normal"


 FMI SETTING BUDGET TERMS FOR KSTP 15 AND KPER 2 TO BUDGET FILE TERMS FROM KSTP 1 AND KPER 2

 FMI SETTING HEAD FOR KSTP 15 AND KPER 2 TO BINARY FILE HEADS FROM KSTP 1 AND KPER 2

 SFR-1 SETTING BUDGET TERMS FOR KSTP 15 AND KPER 2 TO BUDGET FILE TERMS FROM KSTP 1 AND KPER 2

end timestep


start timestep kper="2" kstp="16" mode="normal"


 FMI SETTING BUDGET TERMS FOR KSTP 16 AND KPER 2 TO BUDGET FILE TERMS FROM KSTP 1 AND KPER 2

 FMI SETTING HEAD FOR KSTP 16 AND KPER 2 TO BINARY FILE HEADS FROM KSTP 1 AND KPER 2

 SFR-1 SETTING BUDGET TERMS FOR KSTP 16 AND KPER 2 TO BUDGET FILE TERMS FROM KSTP 1 AND KPER 2

end timestep


start timestep kper="2" kstp="17" mode="normal"


 FMI SETTING BUDGET TERMS FOR KSTP 17 AND KPER 2 TO BUDGET FILE TERMS FROM KSTP 1 AND KPER 2

 FMI SETTING HEAD FOR KSTP 17 AND KPER 2 TO BINARY FILE HEADS FROM KSTP 1 AND KPER 2

 SFR-1 SETTING BUDGET TERMS FOR KSTP 17 AND KPER 2 TO BUDGET FILE TERMS FROM KSTP 1 AND KPER 2

end timestep


start timestep kper="2" kstp="18" mode="normal"


 FMI SETTING BUDGET TERMS FOR KSTP 18 AND KPER 2 TO BUDGET FILE TERMS FROM KSTP 1 AND KPER 2

 FMI SETTING HEAD FOR KSTP 18 AND KPER 2 TO BINARY FILE HEADS FROM KSTP 1 AND KPER 2

 SFR-1 SETTING BUDGET TERMS FOR KSTP 18 AND KPER 2 TO BUDGET FILE TERMS FROM KSTP 1 AND KPER 2

end timestep


start timestep kper="2" kstp="19" mode="normal"


 FMI SETTING BUDGET TERMS FOR KSTP 19 AND KPER 2 TO BUDGET FILE TERMS FROM KSTP 1 AND KPER 2

 FMI SETTING HEAD FOR KSTP 19 AND KPER 2 TO BINARY FILE HEADS FROM KSTP 1 AND KPER 2

 SFR-1 SETTING BUDGET TERMS FOR KSTP 19 AND KPER 2 TO BUDGET FILE TERMS FROM KSTP 1 AND KPER 2

end timestep


start timestep kper="2" kstp="20" mode="normal"


 FMI SETTING BUDGET TERMS FOR KSTP 20 AND KPER 2 TO BUDGET FILE TERMS FROM KSTP 1 AND KPER 2

 FMI SETTING HEAD FOR KSTP 20 AND KPER 2 TO BINARY FILE HEADS FROM KSTP 1 AND KPER 2

 SFR-1 SETTING BUDGET TERMS FOR KSTP 20 AND KPER 2 TO BUDGET FILE TERMS FROM KSTP 1 AND KPER 2

 CONCENTRATION WILL BE SAVED ON UNIT 1024 AT END OF TIME STEP   20, STRESS PERIOD    2

end timestep


start timestep kper="2" kstp="21" mode="normal"


 FMI SETTING BUDGET TERMS FOR KSTP 21 AND KPER 2 TO BUDGET FILE TERMS FROM KSTP 1 AND KPER 2

 FMI SETTING HEAD FOR KSTP 21 AND KPER 2 TO BINARY FILE HEADS FROM KSTP 1 AND KPER 2

 SFR-1 SETTING BUDGET TERMS FOR KSTP 21 AND KPER 2 TO BUDGET FILE TERMS FROM KSTP 1 AND KPER 2

end timestep


start timestep kper="2" kstp="22" mode="normal"


 FMI SETTING BUDGET TERMS FOR KSTP 22 AND KPER 2 TO BUDGET FILE TERMS FROM KSTP 1 AND KPER 2

 FMI SETTING HEAD FOR KSTP 22 AND KPER 2 TO BINARY FILE HEADS FROM KSTP 1 AND KPER 2

 SFR-1 SETTING BUDGET TERMS FOR KSTP 22 AND KPER 2 TO BUDGET FILE TERMS FROM KSTP 1 AND KPER 2

end timestep


start timestep kper="2" kstp="23" mode="normal"


 FMI SETTING BUDGET TERMS FOR KSTP 23 AND KPER 2 TO BUDGET FILE TERMS FROM KSTP 1 AND KPER 2

 FMI SETTING HEAD FOR KSTP 23 AND KPER 2 TO BINARY FILE HEADS FROM KSTP 1 AND KPER 2

 SFR-1 SETTING BUDGET TERMS FOR KSTP 23 AND KPER 2 TO BUDGET FILE TERMS FROM KSTP 1 AND KPER 2

end timestep


start timestep kper="2" kstp="24" mode="normal"


 FMI SETTING BUDGET TERMS FOR KSTP 24 AND KPER 2 TO BUDGET FILE TERMS FROM KSTP 1 AND KPER 2

 FMI SETTING HEAD FOR KSTP 24 AND KPER 2 TO BINARY FILE HEADS FROM KSTP 1 AND KPER 2

 SFR-1 SETTING BUDGET TERMS FOR KSTP 24 AND KPER 2 TO BUDGET FILE TERMS FROM KSTP 1 AND KPER 2

end timestep


start timestep kper="2" kstp="25" mode="normal"


 FMI SETTING BUDGET TERMS FOR KSTP 25 AND KPER 2 TO BUDGET FILE TERMS FROM KSTP 1 AND KPER 2

 FMI SETTING HEAD FOR KSTP 25 AND KPER 2 TO BINARY FILE HEADS FROM KSTP 1 AND KPER 2

 SFR-1 SETTING BUDGET TERMS FOR KSTP 25 AND KPER 2 TO BUDGET FILE TERMS FROM KSTP 1 AND KPER 2

end timestep


start timestep kper="2" kstp="26" mode="normal"


 FMI SETTING BUDGET TERMS FOR KSTP 26 AND KPER 2 TO BUDGET FILE TERMS FROM KSTP 1 AND KPER 2

 FMI SETTING HEAD FOR KSTP 26 AND KPER 2 TO BINARY FILE HEADS FROM KSTP 1 AND KPER 2

 SFR-1 SETTING BUDGET TERMS FOR KSTP 26 AND KPER 2 TO BUDGET FILE TERMS FROM KSTP 1 AND KPER 2

end timestep


start timestep kper="2" kstp="27" mode="normal"


 FMI SETTING BUDGET TERMS FOR KSTP 27 AND KPER 2 TO BUDGET FILE TERMS FROM KSTP 1 AND KPER 2

 FMI SETTING HEAD FOR KSTP 27 AND KPER 2 TO BINARY FILE HEADS FROM KSTP 1 AND KPER 2

 SFR-1 SETTING BUDGET TERMS FOR KSTP 27 AND KPER 2 TO BUDGET FILE TERMS FROM KSTP 1 AND KPER 2

 CONCENTRATION WILL BE SAVED ON UNIT 1024 AT END OF TIME STEP   27, STRESS PERIOD    2

end timestep


start timestep kper="2" kstp="28" mode="normal"


 FMI SETTING BUDGET TERMS FOR KSTP 28 AND KPER 2 TO BUDGET FILE TERMS FROM KSTP 1 AND KPER 2

 FMI SETTING HEAD FOR KSTP 28 AND KPER 2 TO BINARY FILE HEADS FROM KSTP 1 AND KPER 2

 SFR-1 SETTING BUDGET TERMS FOR KSTP 28 AND KPER 2 TO BUDGET FILE TERMS FROM KSTP 1 AND KPER 2

end timestep


start timestep kper="2" kstp="29" mode="normal"


 FMI SETTING BUDGET TERMS FOR KSTP 29 AND KPER 2 TO BUDGET FILE TERMS FROM KSTP 1 AND KPER 2

 FMI SETTING HEAD FOR KSTP 29 AND KPER 2 TO BINARY FILE HEADS FROM KSTP 1 AND KPER 2

 SFR-1 SETTING BUDGET TERMS FOR KSTP 29 AND KPER 2 TO BUDGET FILE TERMS FROM KSTP 1 AND KPER 2

end timestep


start timestep kper="2" kstp="30" mode="normal"


 FMI SETTING BUDGET TERMS FOR KSTP 30 AND KPER 2 TO BUDGET FILE TERMS FROM KSTP 1 AND KPER 2

 FMI SETTING HEAD FOR KSTP 30 AND KPER 2 TO BINARY FILE HEADS FROM KSTP 1 AND KPER 2

 SFR-1 SETTING BUDGET TERMS FOR KSTP 30 AND KPER 2 TO BUDGET FILE TERMS FROM KSTP 1 AND KPER 2

 CONCENTRATION WILL BE SAVED ON UNIT 1024 AT END OF TIME STEP   30, STRESS PERIOD    2

end timestep


start timestep kper="2" kstp="31" mode="normal"


 FMI SETTING BUDGET TERMS FOR KSTP 31 AND KPER 2 TO BUDGET FILE TERMS FROM KSTP 1 AND KPER 2

 FMI SETTING HEAD FOR KSTP 31 AND KPER 2 TO BINARY FILE HEADS FROM KSTP 1 AND KPER 2

 SFR-1 SETTING BUDGET TERMS FOR KSTP 31 AND KPER 2 TO BUDGET FILE TERMS FROM KSTP 1 AND KPER 2

end timestep


start timestep kper="2" kstp="32" mode="normal"


 FMI SETTING BUDGET TERMS FOR KSTP 32 AND KPER 2 TO BUDGET FILE TERMS FROM KSTP 1 AND KPER 2

 FMI SETTING HEAD FOR KSTP 32 AND KPER 2 TO BINARY FILE HEADS FROM KSTP 1 AND KPER 2

 SFR-1 SETTING BUDGET TERMS FOR KSTP 32 AND KPER 2 TO BUDGET FILE TERMS FROM KSTP 1 AND KPER 2

end timestep


start timestep kper="2" kstp="33" mode="normal"


 FMI SETTING BUDGET TERMS FOR KSTP 33 AND KPER 2 TO BUDGET FILE TERMS FROM KSTP 1 AND KPER 2

 FMI SETTING HEAD FOR KSTP 33 AND KPER 2 TO BINARY FILE HEADS FROM KSTP 1 AND KPER 2

 SFR-1 SETTING BUDGET TERMS FOR KSTP 33 AND KPER 2 TO BUDGET FILE TERMS FROM KSTP 1 AND KPER 2

end timestep


start timestep kper="2" kstp="34" mode="normal"


 FMI SETTING BUDGET TERMS FOR KSTP 34 AND KPER 2 TO BUDGET FILE TERMS FROM KSTP 1 AND KPER 2

 FMI SETTING HEAD FOR KSTP 34 AND KPER 2 TO BINARY FILE HEADS FROM KSTP 1 AND KPER 2

 SFR-1 SETTING BUDGET TERMS FOR KSTP 34 AND KPER 2 TO BUDGET FILE TERMS FROM KSTP 1 AND KPER 2

end timestep


start timestep kper="2" kstp="35" mode="normal"


 FMI SETTING BUDGET TERMS FOR KSTP 35 AND KPER 2 TO BUDGET FILE TERMS FROM KSTP 1 AND KPER 2

 FMI SETTING HEAD FOR KSTP 35 AND KPER 2 TO BINARY FILE HEADS FROM KSTP 1 AND KPER 2

 SFR-1 SETTING BUDGET TERMS FOR KSTP 35 AND KPER 2 TO BUDGET FILE TERMS FROM KSTP 1 AND KPER 2

end timestep


start timestep kper="2" kstp="36" mode="normal"


 FMI SETTING BUDGET TERMS FOR KSTP 36 AND KPER 2 TO BUDGET FILE TERMS FROM KSTP 1 AND KPER 2

 FMI SETTING HEAD FOR KSTP 36 AND KPER 2 TO BINARY FILE HEADS FROM KSTP 1 AND KPER 2

 SFR-1 SETTING BUDGET TERMS FOR KSTP 36 AND KPER 2 TO BUDGET FILE TERMS FROM KSTP 1 AND KPER 2

end timestep


start timestep kper="2" kstp="37" mode="normal"


 FMI SETTING BUDGET TERMS FOR KSTP 37 AND KPER 2 TO BUDGET FILE TERMS FROM KSTP 1 AND KPER 2

 FMI SETTING HEAD FOR KSTP 37 AND KPER 2 TO BINARY FILE HEADS FROM KSTP 1 AND KPER 2

 SFR-1 SETTING BUDGET TERMS FOR KSTP 37 AND KPER 2 TO BUDGET FILE TERMS FROM KSTP 1 AND KPER 2

end timestep


start timestep kper="2" kstp="38" mode="normal"


 FMI SETTING BUDGET TERMS FOR KSTP 38 AND KPER 2 TO BUDGET FILE TERMS FROM KSTP 1 AND KPER 2

 FMI SETTING HEAD FOR KSTP 38 AND KPER 2 TO BINARY FILE HEADS FROM KSTP 1 AND KPER 2

 SFR-1 SETTING BUDGET TERMS FOR KSTP 38 AND KPER 2 TO BUDGET FILE TERMS FROM KSTP 1 AND KPER 2

end timestep


start timestep kper="2" kstp="39" mode="normal"


 FMI SETTING BUDGET TERMS FOR KSTP 39 AND KPER 2 TO BUDGET FILE TERMS FROM KSTP 1 AND KPER 2

 FMI SETTING HEAD FOR KSTP 39 AND KPER 2 TO BINARY FILE HEADS FROM KSTP 1 AND KPER 2

 SFR-1 SETTING BUDGET TERMS FOR KSTP 39 AND KPER 2 TO BUDGET FILE TERMS FROM KSTP 1 AND KPER 2

end timestep


start timestep kper="2" kstp="40" mode="normal"


 FMI SETTING BUDGET TERMS FOR KSTP 40 AND KPER 2 TO BUDGET FILE TERMS FROM KSTP 1 AND KPER 2

 FMI SETTING HEAD FOR KSTP 40 AND KPER 2 TO BINARY FILE HEADS FROM KSTP 1 AND KPER 2

 SFR-1 SETTING BUDGET TERMS FOR KSTP 40 AND KPER 2 TO BUDGET FILE TERMS FROM KSTP 1 AND KPER 2

 CONCENTRATION WILL BE SAVED ON UNIT 1024 AT END OF TIME STEP   40, STRESS PERIOD    2

end timestep


start timestep kper="2" kstp="41" mode="normal"


 FMI SETTING BUDGET TERMS FOR KSTP 41 AND KPER 2 TO BUDGET FILE TERMS FROM KSTP 1 AND KPER 2

 FMI SETTING HEAD FOR KSTP 41 AND KPER 2 TO BINARY FILE HEADS FROM KSTP 1 AND KPER 2

 SFR-1 SETTING BUDGET TERMS FOR KSTP 41 AND KPER 2 TO BUDGET FILE TERMS FROM KSTP 1 AND KPER 2

end timestep


start timestep kper="2" kstp="42" mode="normal"


 FMI SETTING BUDGET TERMS FOR KSTP 42 AND KPER 2 TO BUDGET FILE TERMS FROM KSTP 1 AND KPER 2

 FMI SETTING HEAD FOR KSTP 42 AND KPER 2 TO BINARY FILE HEADS FROM KSTP 1 AND KPER 2

 SFR-1 SETTING BUDGET TERMS FOR KSTP 42 AND KPER 2 TO BUDGET FILE TERMS FROM KSTP 1 AND KPER 2

end timestep


start timestep kper="2" kstp="43" mode="normal"


 FMI SETTING BUDGET TERMS FOR KSTP 43 AND KPER 2 TO BUDGET FILE TERMS FROM KSTP 1 AND KPER 2

 FMI SETTING HEAD FOR KSTP 43 AND KPER 2 TO BINARY FILE HEADS FROM KSTP 1 AND KPER 2

 SFR-1 SETTING BUDGET TERMS FOR KSTP 43 AND KPER 2 TO BUDGET FILE TERMS FROM KSTP 1 AND KPER 2

end timestep


start timestep kper="2" kstp="44" mode="normal"


 FMI SETTING BUDGET TERMS FOR KSTP 44 AND KPER 2 TO BUDGET FILE TERMS FROM KSTP 1 AND KPER 2

 FMI SETTING HEAD FOR KSTP 44 AND KPER 2 TO BINARY FILE HEADS FROM KSTP 1 AND KPER 2

 SFR-1 SETTING BUDGET TERMS FOR KSTP 44 AND KPER 2 TO BUDGET FILE TERMS FROM KSTP 1 AND KPER 2

end timestep


start timestep kper="2" kstp="45" mode="normal"


 FMI SETTING BUDGET TERMS FOR KSTP 45 AND KPER 2 TO BUDGET FILE TERMS FROM KSTP 1 AND KPER 2

 FMI SETTING HEAD FOR KSTP 45 AND KPER 2 TO BINARY FILE HEADS FROM KSTP 1 AND KPER 2

 SFR-1 SETTING BUDGET TERMS FOR KSTP 45 AND KPER 2 TO BUDGET FILE TERMS FROM KSTP 1 AND KPER 2

end timestep


start timestep kper="2" kstp="46" mode="normal"


 FMI SETTING BUDGET TERMS FOR KSTP 46 AND KPER 2 TO BUDGET FILE TERMS FROM KSTP 1 AND KPER 2

 FMI SETTING HEAD FOR KSTP 46 AND KPER 2 TO BINARY FILE HEADS FROM KSTP 1 AND KPER 2

 SFR-1 SETTING BUDGET TERMS FOR KSTP 46 AND KPER 2 TO BUDGET FILE TERMS FROM KSTP 1 AND KPER 2

end timestep


start timestep kper="2" kstp="47" mode="normal"


 FMI SETTING BUDGET TERMS FOR KSTP 47 AND KPER 2 TO BUDGET FILE TERMS FROM KSTP 1 AND KPER 2

 FMI SETTING HEAD FOR KSTP 47 AND KPER 2 TO BINARY FILE HEADS FROM KSTP 1 AND KPER 2

 SFR-1 SETTING BUDGET TERMS FOR KSTP 47 AND KPER 2 TO BUDGET FILE TERMS FROM KSTP 1 AND KPER 2

end timestep


start timestep kper="2" kstp="48" mode="normal"


 FMI SETTING BUDGET TERMS FOR KSTP 48 AND KPER 2 TO BUDGET FILE TERMS FROM KSTP 1 AND KPER 2

 FMI SETTING HEAD FOR KSTP 48 AND KPER 2 TO BINARY FILE HEADS FROM KSTP 1 AND KPER 2

 SFR-1 SETTING BUDGET TERMS FOR KSTP 48 AND KPER 2 TO BUDGET FILE TERMS FROM KSTP 1 AND KPER 2

end timestep


start timestep kper="2" kstp="49" mode="normal"


 FMI SETTING BUDGET TERMS FOR KSTP 49 AND KPER 2 TO BUDGET FILE TERMS FROM KSTP 1 AND KPER 2

 FMI SETTING HEAD FOR KSTP 49 AND KPER 2 TO BINARY FILE HEADS FROM KSTP 1 AND KPER 2

 SFR-1 SETTING BUDGET TERMS FOR KSTP 49 AND KPER 2 TO BUDGET FILE TERMS FROM KSTP 1 AND KPER 2

end timestep


start timestep kper="2" kstp="50" mode="normal"


 FMI SETTING BUDGET TERMS FOR KSTP 50 AND KPER 2 TO BUDGET FILE TERMS FROM KSTP 1 AND KPER 2

 FMI SETTING HEAD FOR KSTP 50 AND KPER 2 TO BINARY FILE HEADS FROM KSTP 1 AND KPER 2

 SFR-1 SETTING BUDGET TERMS FOR KSTP 50 AND KPER 2 TO BUDGET FILE TERMS FROM KSTP 1 AND KPER 2

 CONCENTRATION WILL BE SAVED ON UNIT 1024 AT END OF TIME STEP   50, STRESS PERIOD    2

end timestep


start timestep kper="2" kstp="51" mode="normal"


 FMI SETTING BUDGET TERMS FOR KSTP 51 AND KPER 2 TO BUDGET FILE TERMS FROM KSTP 1 AND KPER 2

 FMI SETTING HEAD FOR KSTP 51 AND KPER 2 TO BINARY FILE HEADS FROM KSTP 1 AND KPER 2

 SFR-1 SETTING BUDGET TERMS FOR KSTP 51 AND KPER 2 TO BUDGET FILE TERMS FROM KSTP 1 AND KPER 2

end timestep


start timestep kper="2" kstp="52" mode="normal"


 FMI SETTING BUDGET TERMS FOR KSTP 52 AND KPER 2 TO BUDGET FILE TERMS FROM KSTP 1 AND KPER 2

 FMI SETTING HEAD FOR KSTP 52 AND KPER 2 TO BINARY FILE HEADS FROM KSTP 1 AND KPER 2

 SFR-1 SETTING BUDGET TERMS FOR KSTP 52 AND KPER 2 TO BUDGET FILE TERMS FROM KSTP 1 AND KPER 2

end timestep


start timestep kper="2" kstp="53" mode="normal"


 FMI SETTING BUDGET TERMS FOR KSTP 53 AND KPER 2 TO BUDGET FILE TERMS FROM KSTP 1 AND KPER 2

 FMI SETTING HEAD FOR KSTP 53 AND KPER 2 TO BINARY FILE HEADS FROM KSTP 1 AND KPER 2

 SFR-1 SETTING BUDGET TERMS FOR KSTP 53 AND KPER 2 TO BUDGET FILE TERMS FROM KSTP 1 AND KPER 2

end timestep


start timestep kper="2" kstp="54" mode="normal"


 FMI SETTING BUDGET TERMS FOR KSTP 54 AND KPER 2 TO BUDGET FILE TERMS FROM KSTP 1 AND KPER 2

 FMI SETTING HEAD FOR KSTP 54 AND KPER 2 TO BINARY FILE HEADS FROM KSTP 1 AND KPER 2

 SFR-1 SETTING BUDGET TERMS FOR KSTP 54 AND KPER 2 TO BUDGET FILE TERMS FROM KSTP 1 AND KPER 2

end timestep


start timestep kper="2" kstp="55" mode="normal"


 FMI SETTING BUDGET TERMS FOR KSTP 55 AND KPER 2 TO BUDGET FILE TERMS FROM KSTP 1 AND KPER 2

 FMI SETTING HEAD FOR KSTP 55 AND KPER 2 TO BINARY FILE HEADS FROM KSTP 1 AND KPER 2

 SFR-1 SETTING BUDGET TERMS FOR KSTP 55 AND KPER 2 TO BUDGET FILE TERMS FROM KSTP 1 AND KPER 2

end timestep


start timestep kper="2" kstp="56" mode="normal"


 FMI SETTING BUDGET TERMS FOR KSTP 56 AND KPER 2 TO BUDGET FILE TERMS FROM KSTP 1 AND KPER 2

 FMI SETTING HEAD FOR KSTP 56 AND KPER 2 TO BINARY FILE HEADS FROM KSTP 1 AND KPER 2

 SFR-1 SETTING BUDGET TERMS FOR KSTP 56 AND KPER 2 TO BUDGET FILE TERMS FROM KSTP 1 AND KPER 2

end timestep


start timestep kper="2" kstp="57" mode="normal"


 FMI SETTING BUDGET TERMS FOR KSTP 57 AND KPER 2 TO BUDGET FILE TERMS FROM KSTP 1 AND KPER 2

 FMI SETTING HEAD FOR KSTP 57 AND KPER 2 TO BINARY FILE HEADS FROM KSTP 1 AND KPER 2

 SFR-1 SETTING BUDGET TERMS FOR KSTP 57 AND KPER 2 TO BUDGET FILE TERMS FROM KSTP 1 AND KPER 2

end timestep


start timestep kper="2" kstp="58" mode="normal"


 FMI SETTING BUDGET TERMS FOR KSTP 58 AND KPER 2 TO BUDGET FILE TERMS FROM KSTP 1 AND KPER 2

 FMI SETTING HEAD FOR KSTP 58 AND KPER 2 TO BINARY FILE HEADS FROM KSTP 1 AND KPER 2

 SFR-1 SETTING BUDGET TERMS FOR KSTP 58 AND KPER 2 TO BUDGET FILE TERMS FROM KSTP 1 AND KPER 2

end timestep


start timestep kper="2" kstp="59" mode="normal"


 FMI SETTING BUDGET TERMS FOR KSTP 59 AND KPER 2 TO BUDGET FILE TERMS FROM KSTP 1 AND KPER 2

 FMI SETTING HEAD FOR KSTP 59 AND KPER 2 TO BINARY FILE HEADS FROM KSTP 1 AND KPER 2

 SFR-1 SETTING BUDGET TERMS FOR KSTP 59 AND KPER 2 TO BUDGET FILE TERMS FROM KSTP 1 AND KPER 2

end timestep


start timestep kper="2" kstp="60" mode="normal"


 FMI SETTING BUDGET TERMS FOR KSTP 60 AND KPER 2 TO BUDGET FILE TERMS FROM KSTP 1 AND KPER 2

 FMI SETTING HEAD FOR KSTP 60 AND KPER 2 TO BINARY FILE HEADS FROM KSTP 1 AND KPER 2

 SFR-1 SETTING BUDGET TERMS FOR KSTP 60 AND KPER 2 TO BUDGET FILE TERMS FROM KSTP 1 AND KPER 2

 CONCENTRATION WILL BE SAVED ON UNIT 1024 AT END OF TIME STEP   60, STRESS PERIOD    2

end timestep


start timestep kper="2" kstp="61" mode="normal"


 FMI SETTING BUDGET TERMS FOR KSTP 61 AND KPER 2 TO BUDGET FILE TERMS FROM KSTP 1 AND KPER 2

 FMI SETTING HEAD FOR KSTP 61 AND KPER 2 TO BINARY FILE HEADS FROM KSTP 1 AND KPER 2

 SFR-1 SETTING BUDGET TERMS FOR KSTP 61 AND KPER 2 TO BUDGET FILE TERMS FROM KSTP 1 AND KPER 2

end timestep


start timestep kper="2" kstp="62" mode="normal"


 FMI SETTING BUDGET TERMS FOR KSTP 62 AND KPER 2 TO BUDGET FILE TERMS FROM KSTP 1 AND KPER 2

 FMI SETTING HEAD FOR KSTP 62 AND KPER 2 TO BINARY FILE HEADS FROM KSTP 1 AND KPER 2

 SFR-1 SETTING BUDGET TERMS FOR KSTP 62 AND KPER 2 TO BUDGET FILE TERMS FROM KSTP 1 AND KPER 2

end timestep


start timestep kper="2" kstp="63" mode="normal"


 FMI SETTING BUDGET TERMS FOR KSTP 63 AND KPER 2 TO BUDGET FILE TERMS FROM KSTP 1 AND KPER 2

 FMI SETTING HEAD FOR KSTP 63 AND KPER 2 TO BINARY FILE HEADS FROM KSTP 1 AND KPER 2

 SFR-1 SETTING BUDGET TERMS FOR KSTP 63 AND KPER 2 TO BUDGET FILE TERMS FROM KSTP 1 AND KPER 2

end timestep


start timestep kper="2" kstp="64" mode="normal"


 FMI SETTING BUDGET TERMS FOR KSTP 64 AND KPER 2 TO BUDGET FILE TERMS FROM KSTP 1 AND KPER 2

 FMI SETTING HEAD FOR KSTP 64 AND KPER 2 TO BINARY FILE HEADS FROM KSTP 1 AND KPER 2

 SFR-1 SETTING BUDGET TERMS FOR KSTP 64 AND KPER 2 TO BUDGET FILE TERMS FROM KSTP 1 AND KPER 2

end timestep


start timestep kper="2" kstp="65" mode="normal"


 FMI SETTING BUDGET TERMS FOR KSTP 65 AND KPER 2 TO BUDGET FILE TERMS FROM KSTP 1 AND KPER 2

 FMI SETTING HEAD FOR KSTP 65 AND KPER 2 TO BINARY FILE HEADS FROM KSTP 1 AND KPER 2

 SFR-1 SETTING BUDGET TERMS FOR KSTP 65 AND KPER 2 TO BUDGET FILE TERMS FROM KSTP 1 AND KPER 2

end timestep


start timestep kper="2" kstp="66" mode="normal"


 FMI SETTING BUDGET TERMS FOR KSTP 66 AND KPER 2 TO BUDGET FILE TERMS FROM KSTP 1 AND KPER 2

 FMI SETTING HEAD FOR KSTP 66 AND KPER 2 TO BINARY FILE HEADS FROM KSTP 1 AND KPER 2

 SFR-1 SETTING BUDGET TERMS FOR KSTP 66 AND KPER 2 TO BUDGET FILE TERMS FROM KSTP 1 AND KPER 2

end timestep


start timestep kper="2" kstp="67" mode="normal"


 FMI SETTING BUDGET TERMS FOR KSTP 67 AND KPER 2 TO BUDGET FILE TERMS FROM KSTP 1 AND KPER 2

 FMI SETTING HEAD FOR KSTP 67 AND KPER 2 TO BINARY FILE HEADS FROM KSTP 1 AND KPER 2

 SFR-1 SETTING BUDGET TERMS FOR KSTP 67 AND KPER 2 TO BUDGET FILE TERMS FROM KSTP 1 AND KPER 2

end timestep


start timestep kper="2" kstp="68" mode="normal"


 FMI SETTING BUDGET TERMS FOR KSTP 68 AND KPER 2 TO BUDGET FILE TERMS FROM KSTP 1 AND KPER 2

 FMI SETTING HEAD FOR KSTP 68 AND KPER 2 TO BINARY FILE HEADS FROM KSTP 1 AND KPER 2

 SFR-1 SETTING BUDGET TERMS FOR KSTP 68 AND KPER 2 TO BUDGET FILE TERMS FROM KSTP 1 AND KPER 2

end timestep


start timestep kper="2" kstp="69" mode="normal"


 FMI SETTING BUDGET TERMS FOR KSTP 69 AND KPER 2 TO BUDGET FILE TERMS FROM KSTP 1 AND KPER 2

 FMI SETTING HEAD FOR KSTP 69 AND KPER 2 TO BINARY FILE HEADS FROM KSTP 1 AND KPER 2

 SFR-1 SETTING BUDGET TERMS FOR KSTP 69 AND KPER 2 TO BUDGET FILE TERMS FROM KSTP 1 AND KPER 2

end timestep


start timestep kper="2" kstp="70" mode="normal"


 FMI SETTING BUDGET TERMS FOR KSTP 70 AND KPER 2 TO BUDGET FILE TERMS FROM KSTP 1 AND KPER 2

 FMI SETTING HEAD FOR KSTP 70 AND KPER 2 TO BINARY FILE HEADS FROM KSTP 1 AND KPER 2

 SFR-1 SETTING BUDGET TERMS FOR KSTP 70 AND KPER 2 TO BUDGET FILE TERMS FROM KSTP 1 AND KPER 2

 CONCENTRATION WILL BE SAVED ON UNIT 1024 AT END OF TIME STEP   70, STRESS PERIOD    2

end timestep


start timestep kper="2" kstp="71" mode="normal"


 FMI SETTING BUDGET TERMS FOR KSTP 71 AND KPER 2 TO BUDGET FILE TERMS FROM KSTP 1 AND KPER 2

 FMI SETTING HEAD FOR KSTP 71 AND KPER 2 TO BINARY FILE HEADS FROM KSTP 1 AND KPER 2

 SFR-1 SETTING BUDGET TERMS FOR KSTP 71 AND KPER 2 TO BUDGET FILE TERMS FROM KSTP 1 AND KPER 2

end timestep


start timestep kper="2" kstp="72" mode="normal"


 FMI SETTING BUDGET TERMS FOR KSTP 72 AND KPER 2 TO BUDGET FILE TERMS FROM KSTP 1 AND KPER 2

 FMI SETTING HEAD FOR KSTP 72 AND KPER 2 TO BINARY FILE HEADS FROM KSTP 1 AND KPER 2

 SFR-1 SETTING BUDGET TERMS FOR KSTP 72 AND KPER 2 TO BUDGET FILE TERMS FROM KSTP 1 AND KPER 2

end timestep


start timestep kper="2" kstp="73" mode="normal"


 FMI SETTING BUDGET TERMS FOR KSTP 73 AND KPER 2 TO BUDGET FILE TERMS FROM KSTP 1 AND KPER 2

 FMI SETTING HEAD FOR KSTP 73 AND KPER 2 TO BINARY FILE HEADS FROM KSTP 1 AND KPER 2

 SFR-1 SETTING BUDGET TERMS FOR KSTP 73 AND KPER 2 TO BUDGET FILE TERMS FROM KSTP 1 AND KPER 2

end timestep


start timestep kper="2" kstp="74" mode="normal"


 FMI SETTING BUDGET TERMS FOR KSTP 74 AND KPER 2 TO BUDGET FILE TERMS FROM KSTP 1 AND KPER 2

 FMI SETTING HEAD FOR KSTP 74 AND KPER 2 TO BINARY FILE HEADS FROM KSTP 1 AND KPER 2

 SFR-1 SETTING BUDGET TERMS FOR KSTP 74 AND KPER 2 TO BUDGET FILE TERMS FROM KSTP 1 AND KPER 2

end timestep


start timestep kper="2" kstp="75" mode="normal"


 FMI SETTING BUDGET TERMS FOR KSTP 75 AND KPER 2 TO BUDGET FILE TERMS FROM KSTP 1 AND KPER 2

 FMI SETTING HEAD FOR KSTP 75 AND KPER 2 TO BINARY FILE HEADS FROM KSTP 1 AND KPER 2

 SFR-1 SETTING BUDGET TERMS FOR KSTP 75 AND KPER 2 TO BUDGET FILE TERMS FROM KSTP 1 AND KPER 2

end timestep


start timestep kper="2" kstp="76" mode="normal"


 FMI SETTING BUDGET TERMS FOR KSTP 76 AND KPER 2 TO BUDGET FILE TERMS FROM KSTP 1 AND KPER 2

 FMI SETTING HEAD FOR KSTP 76 AND KPER 2 TO BINARY FILE HEADS FROM KSTP 1 AND KPER 2

 SFR-1 SETTING BUDGET TERMS FOR KSTP 76 AND KPER 2 TO BUDGET FILE TERMS FROM KSTP 1 AND KPER 2

end timestep


start timestep kper="2" kstp="77" mode="normal"


 FMI SETTING BUDGET TERMS FOR KSTP 77 AND KPER 2 TO BUDGET FILE TERMS FROM KSTP 1 AND KPER 2

 FMI SETTING HEAD FOR KSTP 77 AND KPER 2 TO BINARY FILE HEADS FROM KSTP 1 AND KPER 2

 SFR-1 SETTING BUDGET TERMS FOR KSTP 77 AND KPER 2 TO BUDGET FILE TERMS FROM KSTP 1 AND KPER 2

end timestep


start timestep kper="2" kstp="78" mode="normal"


 FMI SETTING BUDGET TERMS FOR KSTP 78 AND KPER 2 TO BUDGET FILE TERMS FROM KSTP 1 AND KPER 2

 FMI SETTING HEAD FOR KSTP 78 AND KPER 2 TO BINARY FILE HEADS FROM KSTP 1 AND KPER 2

 SFR-1 SETTING BUDGET TERMS FOR KSTP 78 AND KPER 2 TO BUDGET FILE TERMS FROM KSTP 1 AND KPER 2

end timestep


start timestep kper="2" kstp="79" mode="normal"


 FMI SETTING BUDGET TERMS FOR KSTP 79 AND KPER 2 TO BUDGET FILE TERMS FROM KSTP 1 AND KPER 2

 FMI SETTING HEAD FOR KSTP 79 AND KPER 2 TO BINARY FILE HEADS FROM KSTP 1 AND KPER 2

 SFR-1 SETTING BUDGET TERMS FOR KSTP 79 AND KPER 2 TO BUDGET FILE TERMS FROM KSTP 1 AND KPER 2

end timestep


start timestep kper="2" kstp="80" mode="normal"


 FMI SETTING BUDGET TERMS FOR KSTP 80 AND KPER 2 TO BUDGET FILE TERMS FROM KSTP 1 AND KPER 2

 FMI SETTING HEAD FOR KSTP 80 AND KPER 2 TO BINARY FILE HEADS FROM KSTP 1 AND KPER 2

 SFR-1 SETTING BUDGET TERMS FOR KSTP 80 AND KPER 2 TO BUDGET FILE TERMS FROM KSTP 1 AND KPER 2

 CONCENTRATION WILL BE SAVED ON UNIT 1024 AT END OF TIME STEP   80, STRESS PERIOD    2

end timestep


start timestep kper="2" kstp="81" mode="normal"


 FMI SETTING BUDGET TERMS FOR KSTP 81 AND KPER 2 TO BUDGET FILE TERMS FROM KSTP 1 AND KPER 2

 FMI SETTING HEAD FOR KSTP 81 AND KPER 2 TO BINARY FILE HEADS FROM KSTP 1 AND KPER 2

 SFR-1 SETTING BUDGET TERMS FOR KSTP 81 AND KPER 2 TO BUDGET FILE TERMS FROM KSTP 1 AND KPER 2

end timestep


start timestep kper="2" kstp="82" mode="normal"


 FMI SETTING BUDGET TERMS FOR KSTP 82 AND KPER 2 TO BUDGET FILE TERMS FROM KSTP 1 AND KPER 2

 FMI SETTING HEAD FOR KSTP 82 AND KPER 2 TO BINARY FILE HEADS FROM KSTP 1 AND KPER 2

 SFR-1 SETTING BUDGET TERMS FOR KSTP 82 AND KPER 2 TO BUDGET FILE TERMS FROM KSTP 1 AND KPER 2

end timestep


start timestep kper="2" kstp="83" mode="normal"


 FMI SETTING BUDGET TERMS FOR KSTP 83 AND KPER 2 TO BUDGET FILE TERMS FROM KSTP 1 AND KPER 2

 FMI SETTING HEAD FOR KSTP 83 AND KPER 2 TO BINARY FILE HEADS FROM KSTP 1 AND KPER 2

 SFR-1 SETTING BUDGET TERMS FOR KSTP 83 AND KPER 2 TO BUDGET FILE TERMS FROM KSTP 1 AND KPER 2

end timestep


start timestep kper="2" kstp="84" mode="normal"


 FMI SETTING BUDGET TERMS FOR KSTP 84 AND KPER 2 TO BUDGET FILE TERMS FROM KSTP 1 AND KPER 2

 FMI SETTING HEAD FOR KSTP 84 AND KPER 2 TO BINARY FILE HEADS FROM KSTP 1 AND KPER 2

 SFR-1 SETTING BUDGET TERMS FOR KSTP 84 AND KPER 2 TO BUDGET FILE TERMS FROM KSTP 1 AND KPER 2

end timestep


start timestep kper="2" kstp="85" mode="normal"


 FMI SETTING BUDGET TERMS FOR KSTP 85 AND KPER 2 TO BUDGET FILE TERMS FROM KSTP 1 AND KPER 2

 FMI SETTING HEAD FOR KSTP 85 AND KPER 2 TO BINARY FILE HEADS FROM KSTP 1 AND KPER 2

 SFR-1 SETTING BUDGET TERMS FOR KSTP 85 AND KPER 2 TO BUDGET FILE TERMS FROM KSTP 1 AND KPER 2

end timestep


start timestep kper="2" kstp="86" mode="normal"


 FMI SETTING BUDGET TERMS FOR KSTP 86 AND KPER 2 TO BUDGET FILE TERMS FROM KSTP 1 AND KPER 2

 FMI SETTING HEAD FOR KSTP 86 AND KPER 2 TO BINARY FILE HEADS FROM KSTP 1 AND KPER 2

 SFR-1 SETTING BUDGET TERMS FOR KSTP 86 AND KPER 2 TO BUDGET FILE TERMS FROM KSTP 1 AND KPER 2

end timestep


start timestep kper="2" kstp="87" mode="normal"


 FMI SETTING BUDGET TERMS FOR KSTP 87 AND KPER 2 TO BUDGET FILE TERMS FROM KSTP 1 AND KPER 2

 FMI SETTING HEAD FOR KSTP 87 AND KPER 2 TO BINARY FILE HEADS FROM KSTP 1 AND KPER 2

 SFR-1 SETTING BUDGET TERMS FOR KSTP 87 AND KPER 2 TO BUDGET FILE TERMS FROM KSTP 1 AND KPER 2

end timestep


start timestep kper="2" kstp="88" mode="normal"


 FMI SETTING BUDGET TERMS FOR KSTP 88 AND KPER 2 TO BUDGET FILE TERMS FROM KSTP 1 AND KPER 2

 FMI SETTING HEAD FOR KSTP 88 AND KPER 2 TO BINARY FILE HEADS FROM KSTP 1 AND KPER 2

 SFR-1 SETTING BUDGET TERMS FOR KSTP 88 AND KPER 2 TO BUDGET FILE TERMS FROM KSTP 1 AND KPER 2

end timestep


start timestep kper="2" kstp="89" mode="normal"


 FMI SETTING BUDGET TERMS FOR KSTP 89 AND KPER 2 TO BUDGET FILE TERMS FROM KSTP 1 AND KPER 2

 FMI SETTING HEAD FOR KSTP 89 AND KPER 2 TO BINARY FILE HEADS FROM KSTP 1 AND KPER 2

 SFR-1 SETTING BUDGET TERMS FOR KSTP 89 AND KPER 2 TO BUDGET FILE TERMS FROM KSTP 1 AND KPER 2

end timestep


start timestep kper="2" kstp="90" mode="normal"


 FMI SETTING BUDGET TERMS FOR KSTP 90 AND KPER 2 TO BUDGET FILE TERMS FROM KSTP 1 AND KPER 2

 FMI SETTING HEAD FOR KSTP 90 AND KPER 2 TO BINARY FILE HEADS FROM KSTP 1 AND KPER 2

 SFR-1 SETTING BUDGET TERMS FOR KSTP 90 AND KPER 2 TO BUDGET FILE TERMS FROM KSTP 1 AND KPER 2

 CONCENTRATION WILL BE SAVED ON UNIT 1024 AT END OF TIME STEP   90, STRESS PERIOD    2

end timestep


start timestep kper="2" kstp="91" mode="normal"


 FMI SETTING BUDGET TERMS FOR KSTP 91 AND KPER 2 TO BUDGET FILE TERMS FROM KSTP 1 AND KPER 2

 FMI SETTING HEAD FOR KSTP 91 AND KPER 2 TO BINARY FILE HEADS FROM KSTP 1 AND KPER 2

 SFR-1 SETTING BUDGET TERMS FOR KSTP 91 AND KPER 2 TO BUDGET FILE TERMS FROM KSTP 1 AND KPER 2

end timestep


start timestep kper="2" kstp="92" mode="normal"


 FMI SETTING BUDGET TERMS FOR KSTP 92 AND KPER 2 TO BUDGET FILE TERMS FROM KSTP 1 AND KPER 2

 FMI SETTING HEAD FOR KSTP 92 AND KPER 2 TO BINARY FILE HEADS FROM KSTP 1 AND KPER 2

 SFR-1 SETTING BUDGET TERMS FOR KSTP 92 AND KPER 2 TO BUDGET FILE TERMS FROM KSTP 1 AND KPER 2

end timestep


start timestep kper="2" kstp="93" mode="normal"


 FMI SETTING BUDGET TERMS FOR KSTP 93 AND KPER 2 TO BUDGET FILE TERMS FROM KSTP 1 AND KPER 2

 FMI SETTING HEAD FOR KSTP 93 AND KPER 2 TO BINARY FILE HEADS FROM KSTP 1 AND KPER 2

 SFR-1 SETTING BUDGET TERMS FOR KSTP 93 AND KPER 2 TO BUDGET FILE TERMS FROM KSTP 1 AND KPER 2

end timestep


start timestep kper="2" kstp="94" mode="normal"


 FMI SETTING BUDGET TERMS FOR KSTP 94 AND KPER 2 TO BUDGET FILE TERMS FROM KSTP 1 AND KPER 2

 FMI SETTING HEAD FOR KSTP 94 AND KPER 2 TO BINARY FILE HEADS FROM KSTP 1 AND KPER 2

 SFR-1 SETTING BUDGET TERMS FOR KSTP 94 AND KPER 2 TO BUDGET FILE TERMS FROM KSTP 1 AND KPER 2

end timestep


start timestep kper="2" kstp="95" mode="normal"


 FMI SETTING BUDGET TERMS FOR KSTP 95 AND KPER 2 TO BUDGET FILE TERMS FROM KSTP 1 AND KPER 2

 FMI SETTING HEAD FOR KSTP 95 AND KPER 2 TO BINARY FILE HEADS FROM KSTP 1 AND KPER 2

 SFR-1 SETTING BUDGET TERMS FOR KSTP 95 AND KPER 2 TO BUDGET FILE TERMS FROM KSTP 1 AND KPER 2

end timestep


start timestep kper="2" kstp="96" mode="normal"


 FMI SETTING BUDGET TERMS FOR KSTP 96 AND KPER 2 TO BUDGET FILE TERMS FROM KSTP 1 AND KPER 2

 FMI SETTING HEAD FOR KSTP 96 AND KPER 2 TO BINARY FILE HEADS FROM KSTP 1 AND KPER 2

 SFR-1 SETTING BUDGET TERMS FOR KSTP 96 AND KPER 2 TO BUDGET FILE TERMS FROM KSTP 1 AND KPER 2

end timestep


start timestep kper="2" kstp="97" mode="normal"


 FMI SETTING BUDGET TERMS FOR KSTP 97 AND KPER 2 TO BUDGET FILE TERMS FROM KSTP 1 AND KPER 2

 FMI SETTING HEAD FOR KSTP 97 AND KPER 2 TO BINARY FILE HEADS FROM KSTP 1 AND KPER 2

 SFR-1 SETTING BUDGET TERMS FOR KSTP 97 AND KPER 2 TO BUDGET FILE TERMS FROM KSTP 1 AND KPER 2

end timestep


start timestep kper="2" kstp="98" mode="normal"


 FMI SETTING BUDGET TERMS FOR KSTP 98 AND KPER 2 TO BUDGET FILE TERMS FROM KSTP 1 AND KPER 2

 FMI SETTING HEAD FOR KSTP 98 AND KPER 2 TO BINARY FILE HEADS FROM KSTP 1 AND KPER 2

 SFR-1 SETTING BUDGET TERMS FOR KSTP 98 AND KPER 2 TO BUDGET FILE TERMS FROM KSTP 1 AND KPER 2

end timestep


start timestep kper="2" kstp="99" mode="normal"


 FMI SETTING BUDGET TERMS FOR KSTP 99 AND KPER 2 TO BUDGET FILE TERMS FROM KSTP 1 AND KPER 2

 FMI SETTING HEAD FOR KSTP 99 AND KPER 2 TO BINARY FILE HEADS FROM KSTP 1 AND KPER 2

 SFR-1 SETTING BUDGET TERMS FOR KSTP 99 AND KPER 2 TO BUDGET FILE TERMS FROM KSTP 1 AND KPER 2

end timestep


start timestep kper="2" kstp="100" mode="normal"


 FMI SETTING BUDGET TERMS FOR KSTP 100 AND KPER 2 TO BUDGET FILE TERMS FROM KSTP 1 AND KPER 2

 FMI SETTING HEAD FOR KSTP 100 AND KPER 2 TO BINARY FILE HEADS FROM KSTP 1 AND KPER 2

 SFR-1 SETTING BUDGET TERMS FOR KSTP 100 AND KPER 2 TO BUDGET FILE TERMS FROM KSTP 1 AND KPER 2

 CONCENTRATION WILL BE SAVED ON UNIT 1024 AT END OF TIME STEP  100, STRESS PERIOD    2

end timestep


start timestep kper="2" kstp="101" mode="normal"


 FMI SETTING BUDGET TERMS FOR KSTP 101 AND KPER 2 TO BUDGET FILE TERMS FROM KSTP 1 AND KPER 2

 FMI SETTING HEAD FOR KSTP 101 AND KPER 2 TO BINARY FILE HEADS FROM KSTP 1 AND KPER 2

 SFR-1 SETTING BUDGET TERMS FOR KSTP 101 AND KPER 2 TO BUDGET FILE TERMS FROM KSTP 1 AND KPER 2

end timestep


start timestep kper="2" kstp="102" mode="normal"


 FMI SETTING BUDGET TERMS FOR KSTP 102 AND KPER 2 TO BUDGET FILE TERMS FROM KSTP 1 AND KPER 2

 FMI SETTING HEAD FOR KSTP 102 AND KPER 2 TO BINARY FILE HEADS FROM KSTP 1 AND KPER 2

 SFR-1 SETTING BUDGET TERMS FOR KSTP 102 AND KPER 2 TO BUDGET FILE TERMS FROM KSTP 1 AND KPER 2

end timestep


start timestep kper="2" kstp="103" mode="normal"


 FMI SETTING BUDGET TERMS FOR KSTP 103 AND KPER 2 TO BUDGET FILE TERMS FROM KSTP 1 AND KPER 2

 FMI SETTING HEAD FOR KSTP 103 AND KPER 2 TO BINARY FILE HEADS FROM KSTP 1 AND KPER 2

 SFR-1 SETTING BUDGET TERMS FOR KSTP 103 AND KPER 2 TO BUDGET FILE TERMS FROM KSTP 1 AND KPER 2

end timestep


start timestep kper="2" kstp="104" mode="normal"


 FMI SETTING BUDGET TERMS FOR KSTP 104 AND KPER 2 TO BUDGET FILE TERMS FROM KSTP 1 AND KPER 2

 FMI SETTING HEAD FOR KSTP 104 AND KPER 2 TO BINARY FILE HEADS FROM KSTP 1 AND KPER 2

 SFR-1 SETTING BUDGET TERMS FOR KSTP 104 AND KPER 2 TO BUDGET FILE TERMS FROM KSTP 1 AND KPER 2

end timestep


start timestep kper="2" kstp="105" mode="normal"


 FMI SETTING BUDGET TERMS FOR KSTP 105 AND KPER 2 TO BUDGET FILE TERMS FROM KSTP 1 AND KPER 2

 FMI SETTING HEAD FOR KSTP 105 AND KPER 2 TO BINARY FILE HEADS FROM KSTP 1 AND KPER 2

 SFR-1 SETTING BUDGET TERMS FOR KSTP 105 AND KPER 2 TO BUDGET FILE TERMS FROM KSTP 1 AND KPER 2

end timestep


start timestep kper="2" kstp="106" mode="normal"


 FMI SETTING BUDGET TERMS FOR KSTP 106 AND KPER 2 TO BUDGET FILE TERMS FROM KSTP 1 AND KPER 2

 FMI SETTING HEAD FOR KSTP 106 AND KPER 2 TO BINARY FILE HEADS FROM KSTP 1 AND KPER 2

 SFR-1 SETTING BUDGET TERMS FOR KSTP 106 AND KPER 2 TO BUDGET FILE TERMS FROM KSTP 1 AND KPER 2

end timestep


start timestep kper="2" kstp="107" mode="normal"


 FMI SETTING BUDGET TERMS FOR KSTP 107 AND KPER 2 TO BUDGET FILE TERMS FROM KSTP 1 AND KPER 2

 FMI SETTING HEAD FOR KSTP 107 AND KPER 2 TO BINARY FILE HEADS FROM KSTP 1 AND KPER 2

 SFR-1 SETTING BUDGET TERMS FOR KSTP 107 AND KPER 2 TO BUDGET FILE TERMS FROM KSTP 1 AND KPER 2

end timestep


start timestep kper="2" kstp="108" mode="normal"


 FMI SETTING BUDGET TERMS FOR KSTP 108 AND KPER 2 TO BUDGET FILE TERMS FROM KSTP 1 AND KPER 2

 FMI SETTING HEAD FOR KSTP 108 AND KPER 2 TO BINARY FILE HEADS FROM KSTP 1 AND KPER 2

 SFR-1 SETTING BUDGET TERMS FOR KSTP 108 AND KPER 2 TO BUDGET FILE TERMS FROM KSTP 1 AND KPER 2

end timestep


start timestep kper="2" kstp="109" mode="normal"


 FMI SETTING BUDGET TERMS FOR KSTP 109 AND KPER 2 TO BUDGET FILE TERMS FROM KSTP 1 AND KPER 2

 FMI SETTING HEAD FOR KSTP 109 AND KPER 2 TO BINARY FILE HEADS FROM KSTP 1 AND KPER 2

 SFR-1 SETTING BUDGET TERMS FOR KSTP 109 AND KPER 2 TO BUDGET FILE TERMS FROM KSTP 1 AND KPER 2

end timestep


start timestep kper="2" kstp="110" mode="normal"


 FMI SETTING BUDGET TERMS FOR KSTP 110 AND KPER 2 TO BUDGET FILE TERMS FROM KSTP 1 AND KPER 2

 FMI SETTING HEAD FOR KSTP 110 AND KPER 2 TO BINARY FILE HEADS FROM KSTP 1 AND KPER 2

 SFR-1 SETTING BUDGET TERMS FOR KSTP 110 AND KPER 2 TO BUDGET FILE TERMS FROM KSTP 1 AND KPER 2

 CONCENTRATION WILL BE SAVED ON UNIT 1024 AT END OF TIME STEP  110, STRESS PERIOD    2

end timestep


start timestep kper="2" kstp="111" mode="normal"


 FMI SETTING BUDGET TERMS FOR KSTP 111 AND KPER 2 TO BUDGET FILE TERMS FROM KSTP 1 AND KPER 2

 FMI SETTING HEAD FOR KSTP 111 AND KPER 2 TO BINARY FILE HEADS FROM KSTP 1 AND KPER 2

 SFR-1 SETTING BUDGET TERMS FOR KSTP 111 AND KPER 2 TO BUDGET FILE TERMS FROM KSTP 1 AND KPER 2

end timestep


start timestep kper="2" kstp="112" mode="normal"


 FMI SETTING BUDGET TERMS FOR KSTP 112 AND KPER 2 TO BUDGET FILE TERMS FROM KSTP 1 AND KPER 2

 FMI SETTING HEAD FOR KSTP 112 AND KPER 2 TO BINARY FILE HEADS FROM KSTP 1 AND KPER 2

 SFR-1 SETTING BUDGET TERMS FOR KSTP 112 AND KPER 2 TO BUDGET FILE TERMS FROM KSTP 1 AND KPER 2

end timestep


start timestep kper="2" kstp="113" mode="normal"


 FMI SETTING BUDGET TERMS FOR KSTP 113 AND KPER 2 TO BUDGET FILE TERMS FROM KSTP 1 AND KPER 2

 FMI SETTING HEAD FOR KSTP 113 AND KPER 2 TO BINARY FILE HEADS FROM KSTP 1 AND KPER 2

 SFR-1 SETTING BUDGET TERMS FOR KSTP 113 AND KPER 2 TO BUDGET FILE TERMS FROM KSTP 1 AND KPER 2

end timestep


start timestep kper="2" kstp="114" mode="normal"


 FMI SETTING BUDGET TERMS FOR KSTP 114 AND KPER 2 TO BUDGET FILE TERMS FROM KSTP 1 AND KPER 2

 FMI SETTING HEAD FOR KSTP 114 AND KPER 2 TO BINARY FILE HEADS FROM KSTP 1 AND KPER 2

 SFR-1 SETTING BUDGET TERMS FOR KSTP 114 AND KPER 2 TO BUDGET FILE TERMS FROM KSTP 1 AND KPER 2

end timestep


start timestep kper="2" kstp="115" mode="normal"


 FMI SETTING BUDGET TERMS FOR KSTP 115 AND KPER 2 TO BUDGET FILE TERMS FROM KSTP 1 AND KPER 2

 FMI SETTING HEAD FOR KSTP 115 AND KPER 2 TO BINARY FILE HEADS FROM KSTP 1 AND KPER 2

 SFR-1 SETTING BUDGET TERMS FOR KSTP 115 AND KPER 2 TO BUDGET FILE TERMS FROM KSTP 1 AND KPER 2

end timestep


start timestep kper="2" kstp="116" mode="normal"


 FMI SETTING BUDGET TERMS FOR KSTP 116 AND KPER 2 TO BUDGET FILE TERMS FROM KSTP 1 AND KPER 2

 FMI SETTING HEAD FOR KSTP 116 AND KPER 2 TO BINARY FILE HEADS FROM KSTP 1 AND KPER 2

 SFR-1 SETTING BUDGET TERMS FOR KSTP 116 AND KPER 2 TO BUDGET FILE TERMS FROM KSTP 1 AND KPER 2

end timestep


start timestep kper="2" kstp="117" mode="normal"


 FMI SETTING BUDGET TERMS FOR KSTP 117 AND KPER 2 TO BUDGET FILE TERMS FROM KSTP 1 AND KPER 2

 FMI SETTING HEAD FOR KSTP 117 AND KPER 2 TO BINARY FILE HEADS FROM KSTP 1 AND KPER 2

 SFR-1 SETTING BUDGET TERMS FOR KSTP 117 AND KPER 2 TO BUDGET FILE TERMS FROM KSTP 1 AND KPER 2

end timestep


start timestep kper="2" kstp="118" mode="normal"


 FMI SETTING BUDGET TERMS FOR KSTP 118 AND KPER 2 TO BUDGET FILE TERMS FROM KSTP 1 AND KPER 2

 FMI SETTING HEAD FOR KSTP 118 AND KPER 2 TO BINARY FILE HEADS FROM KSTP 1 AND KPER 2

 SFR-1 SETTING BUDGET TERMS FOR KSTP 118 AND KPER 2 TO BUDGET FILE TERMS FROM KSTP 1 AND KPER 2

end timestep


start timestep kper="2" kstp="119" mode="normal"


 FMI SETTING BUDGET TERMS FOR KSTP 119 AND KPER 2 TO BUDGET FILE TERMS FROM KSTP 1 AND KPER 2

 FMI SETTING HEAD FOR KSTP 119 AND KPER 2 TO BINARY FILE HEADS FROM KSTP 1 AND KPER 2

 SFR-1 SETTING BUDGET TERMS FOR KSTP 119 AND KPER 2 TO BUDGET FILE TERMS FROM KSTP 1 AND KPER 2

end timestep


start timestep kper="2" kstp="120" mode="normal"


 FMI SETTING BUDGET TERMS FOR KSTP 120 AND KPER 2 TO BUDGET FILE TERMS FROM KSTP 1 AND KPER 2

 FMI SETTING HEAD FOR KSTP 120 AND KPER 2 TO BINARY FILE HEADS FROM KSTP 1 AND KPER 2

 SFR-1 SETTING BUDGET TERMS FOR KSTP 120 AND KPER 2 TO BUDGET FILE TERMS FROM KSTP 1 AND KPER 2

 CONCENTRATION WILL BE SAVED ON UNIT 1024 AT END OF TIME STEP  120, STRESS PERIOD    2

end timestep


start timestep kper="2" kstp="121" mode="normal"


 FMI SETTING BUDGET TERMS FOR KSTP 121 AND KPER 2 TO BUDGET FILE TERMS FROM KSTP 1 AND KPER 2

 FMI SETTING HEAD FOR KSTP 121 AND KPER 2 TO BINARY FILE HEADS FROM KSTP 1 AND KPER 2

 SFR-1 SETTING BUDGET TERMS FOR KSTP 121 AND KPER 2 TO BUDGET FILE TERMS FROM KSTP 1 AND KPER 2

end timestep


start timestep kper="2" kstp="122" mode="normal"


 FMI SETTING BUDGET TERMS FOR KSTP 122 AND KPER 2 TO BUDGET FILE TERMS FROM KSTP 1 AND KPER 2

 FMI SETTING HEAD FOR KSTP 122 AND KPER 2 TO BINARY FILE HEADS FROM KSTP 1 AND KPER 2

 SFR-1 SETTING BUDGET TERMS FOR KSTP 122 AND KPER 2 TO BUDGET FILE TERMS FROM KSTP 1 AND KPER 2

end timestep


start timestep kper="2" kstp="123" mode="normal"


 FMI SETTING BUDGET TERMS FOR KSTP 123 AND KPER 2 TO BUDGET FILE TERMS FROM KSTP 1 AND KPER 2

 FMI SETTING HEAD FOR KSTP 123 AND KPER 2 TO BINARY FILE HEADS FROM KSTP 1 AND KPER 2

 SFR-1 SETTING BUDGET TERMS FOR KSTP 123 AND KPER 2 TO BUDGET FILE TERMS FROM KSTP 1 AND KPER 2

end timestep


start timestep kper="2" kstp="124" mode="normal"


 FMI SETTING BUDGET TERMS FOR KSTP 124 AND KPER 2 TO BUDGET FILE TERMS FROM KSTP 1 AND KPER 2

 FMI SETTING HEAD FOR KSTP 124 AND KPER 2 TO BINARY FILE HEADS FROM KSTP 1 AND KPER 2

 SFR-1 SETTING BUDGET TERMS FOR KSTP 124 AND KPER 2 TO BUDGET FILE TERMS FROM KSTP 1 AND KPER 2

end timestep


start timestep kper="2" kstp="125" mode="normal"


 FMI SETTING BUDGET TERMS FOR KSTP 125 AND KPER 2 TO BUDGET FILE TERMS FROM KSTP 1 AND KPER 2

 FMI SETTING HEAD FOR KSTP 125 AND KPER 2 TO BINARY FILE HEADS FROM KSTP 1 AND KPER 2

 SFR-1 SETTING BUDGET TERMS FOR KSTP 125 AND KPER 2 TO BUDGET FILE TERMS FROM KSTP 1 AND KPER 2

end timestep


start timestep kper="2" kstp="126" mode="normal"


 FMI SETTING BUDGET TERMS FOR KSTP 126 AND KPER 2 TO BUDGET FILE TERMS FROM KSTP 1 AND KPER 2

 FMI SETTING HEAD FOR KSTP 126 AND KPER 2 TO BINARY FILE HEADS FROM KSTP 1 AND KPER 2

 SFR-1 SETTING BUDGET TERMS FOR KSTP 126 AND KPER 2 TO BUDGET FILE TERMS FROM KSTP 1 AND KPER 2

end timestep


start timestep kper="2" kstp="127" mode="normal"


 FMI SETTING BUDGET TERMS FOR KSTP 127 AND KPER 2 TO BUDGET FILE TERMS FROM KSTP 1 AND KPER 2

 FMI SETTING HEAD FOR KSTP 127 AND KPER 2 TO BINARY FILE HEADS FROM KSTP 1 AND KPER 2

 SFR-1 SETTING BUDGET TERMS FOR KSTP 127 AND KPER 2 TO BUDGET FILE TERMS FROM KSTP 1 AND KPER 2

end timestep


start timestep kper="2" kstp="128" mode="normal"


 FMI SETTING BUDGET TERMS FOR KSTP 128 AND KPER 2 TO BUDGET FILE TERMS FROM KSTP 1 AND KPER 2

 FMI SETTING HEAD FOR KSTP 128 AND KPER 2 TO BINARY FILE HEADS FROM KSTP 1 AND KPER 2

 SFR-1 SETTING BUDGET TERMS FOR KSTP 128 AND KPER 2 TO BUDGET FILE TERMS FROM KSTP 1 AND KPER 2

end timestep


start timestep kper="2" kstp="129" mode="normal"


 FMI SETTING BUDGET TERMS FOR KSTP 129 AND KPER 2 TO BUDGET FILE TERMS FROM KSTP 1 AND KPER 2

 FMI SETTING HEAD FOR KSTP 129 AND KPER 2 TO BINARY FILE HEADS FROM KSTP 1 AND KPER 2

 SFR-1 SETTING BUDGET TERMS FOR KSTP 129 AND KPER 2 TO BUDGET FILE TERMS FROM KSTP 1 AND KPER 2

end timestep


start timestep kper="2" kstp="130" mode="normal"


 FMI SETTING BUDGET TERMS FOR KSTP 130 AND KPER 2 TO BUDGET FILE TERMS FROM KSTP 1 AND KPER 2

 FMI SETTING HEAD FOR KSTP 130 AND KPER 2 TO BINARY FILE HEADS FROM KSTP 1 AND KPER 2

 SFR-1 SETTING BUDGET TERMS FOR KSTP 130 AND KPER 2 TO BUDGET FILE TERMS FROM KSTP 1 AND KPER 2

 CONCENTRATION WILL BE SAVED ON UNIT 1024 AT END OF TIME STEP  130, STRESS PERIOD    2

end timestep


start timestep kper="2" kstp="131" mode="normal"


 FMI SETTING BUDGET TERMS FOR KSTP 131 AND KPER 2 TO BUDGET FILE TERMS FROM KSTP 1 AND KPER 2

 FMI SETTING HEAD FOR KSTP 131 AND KPER 2 TO BINARY FILE HEADS FROM KSTP 1 AND KPER 2

 SFR-1 SETTING BUDGET TERMS FOR KSTP 131 AND KPER 2 TO BUDGET FILE TERMS FROM KSTP 1 AND KPER 2

end timestep


start timestep kper="2" kstp="132" mode="normal"


 FMI SETTING BUDGET TERMS FOR KSTP 132 AND KPER 2 TO BUDGET FILE TERMS FROM KSTP 1 AND KPER 2

 FMI SETTING HEAD FOR KSTP 132 AND KPER 2 TO BINARY FILE HEADS FROM KSTP 1 AND KPER 2

 SFR-1 SETTING BUDGET TERMS FOR KSTP 132 AND KPER 2 TO BUDGET FILE TERMS FROM KSTP 1 AND KPER 2

end timestep


start timestep kper="2" kstp="133" mode="normal"


 FMI SETTING BUDGET TERMS FOR KSTP 133 AND KPER 2 TO BUDGET FILE TERMS FROM KSTP 1 AND KPER 2

 FMI SETTING HEAD FOR KSTP 133 AND KPER 2 TO BINARY FILE HEADS FROM KSTP 1 AND KPER 2

 SFR-1 SETTING BUDGET TERMS FOR KSTP 133 AND KPER 2 TO BUDGET FILE TERMS FROM KSTP 1 AND KPER 2

end timestep


start timestep kper="2" kstp="134" mode="normal"


 FMI SETTING BUDGET TERMS FOR KSTP 134 AND KPER 2 TO BUDGET FILE TERMS FROM KSTP 1 AND KPER 2

 FMI SETTING HEAD FOR KSTP 134 AND KPER 2 TO BINARY FILE HEADS FROM KSTP 1 AND KPER 2

 SFR-1 SETTING BUDGET TERMS FOR KSTP 134 AND KPER 2 TO BUDGET FILE TERMS FROM KSTP 1 AND KPER 2

end timestep


start timestep kper="2" kstp="135" mode="normal"


 FMI SETTING BUDGET TERMS FOR KSTP 135 AND KPER 2 TO BUDGET FILE TERMS FROM KSTP 1 AND KPER 2

 FMI SETTING HEAD FOR KSTP 135 AND KPER 2 TO BINARY FILE HEADS FROM KSTP 1 AND KPER 2

 SFR-1 SETTING BUDGET TERMS FOR KSTP 135 AND KPER 2 TO BUDGET FILE TERMS FROM KSTP 1 AND KPER 2

end timestep


start timestep kper="2" kstp="136" mode="normal"


 FMI SETTING BUDGET TERMS FOR KSTP 136 AND KPER 2 TO BUDGET FILE TERMS FROM KSTP 1 AND KPER 2

 FMI SETTING HEAD FOR KSTP 136 AND KPER 2 TO BINARY FILE HEADS FROM KSTP 1 AND KPER 2

 SFR-1 SETTING BUDGET TERMS FOR KSTP 136 AND KPER 2 TO BUDGET FILE TERMS FROM KSTP 1 AND KPER 2

end timestep


start timestep kper="2" kstp="137" mode="normal"


 FMI SETTING BUDGET TERMS FOR KSTP 137 AND KPER 2 TO BUDGET FILE TERMS FROM KSTP 1 AND KPER 2

 FMI SETTING HEAD FOR KSTP 137 AND KPER 2 TO BINARY FILE HEADS FROM KSTP 1 AND KPER 2

 SFR-1 SETTING BUDGET TERMS FOR KSTP 137 AND KPER 2 TO BUDGET FILE TERMS FROM KSTP 1 AND KPER 2

end timestep


start timestep kper="2" kstp="138" mode="normal"


 FMI SETTING BUDGET TERMS FOR KSTP 138 AND KPER 2 TO BUDGET FILE TERMS FROM KSTP 1 AND KPER 2

 FMI SETTING HEAD FOR KSTP 138 AND KPER 2 TO BINARY FILE HEADS FROM KSTP 1 AND KPER 2

 SFR-1 SETTING BUDGET TERMS FOR KSTP 138 AND KPER 2 TO BUDGET FILE TERMS FROM KSTP 1 AND KPER 2

end timestep


start timestep kper="2" kstp="139" mode="normal"


 FMI SETTING BUDGET TERMS FOR KSTP 139 AND KPER 2 TO BUDGET FILE TERMS FROM KSTP 1 AND KPER 2

 FMI SETTING HEAD FOR KSTP 139 AND KPER 2 TO BINARY FILE HEADS FROM KSTP 1 AND KPER 2

 SFR-1 SETTING BUDGET TERMS FOR KSTP 139 AND KPER 2 TO BUDGET FILE TERMS FROM KSTP 1 AND KPER 2

end timestep


start timestep kper="2" kstp="140" mode="normal"


 FMI SETTING BUDGET TERMS FOR KSTP 140 AND KPER 2 TO BUDGET FILE TERMS FROM KSTP 1 AND KPER 2

 FMI SETTING HEAD FOR KSTP 140 AND KPER 2 TO BINARY FILE HEADS FROM KSTP 1 AND KPER 2

 SFR-1 SETTING BUDGET TERMS FOR KSTP 140 AND KPER 2 TO BUDGET FILE TERMS FROM KSTP 1 AND KPER 2

 CONCENTRATION WILL BE SAVED ON UNIT 1024 AT END OF TIME STEP  140, STRESS PERIOD    2

end timestep


start timestep kper="2" kstp="141" mode="normal"


 FMI SETTING BUDGET TERMS FOR KSTP 141 AND KPER 2 TO BUDGET FILE TERMS FROM KSTP 1 AND KPER 2

 FMI SETTING HEAD FOR KSTP 141 AND KPER 2 TO BINARY FILE HEADS FROM KSTP 1 AND KPER 2

 SFR-1 SETTING BUDGET TERMS FOR KSTP 141 AND KPER 2 TO BUDGET FILE TERMS FROM KSTP 1 AND KPER 2

end timestep


start timestep kper="2" kstp="142" mode="normal"


 FMI SETTING BUDGET TERMS FOR KSTP 142 AND KPER 2 TO BUDGET FILE TERMS FROM KSTP 1 AND KPER 2

 FMI SETTING HEAD FOR KSTP 142 AND KPER 2 TO BINARY FILE HEADS FROM KSTP 1 AND KPER 2

 SFR-1 SETTING BUDGET TERMS FOR KSTP 142 AND KPER 2 TO BUDGET FILE TERMS FROM KSTP 1 AND KPER 2

end timestep


start timestep kper="2" kstp="143" mode="normal"


 FMI SETTING BUDGET TERMS FOR KSTP 143 AND KPER 2 TO BUDGET FILE TERMS FROM KSTP 1 AND KPER 2

 FMI SETTING HEAD FOR KSTP 143 AND KPER 2 TO BINARY FILE HEADS FROM KSTP 1 AND KPER 2

 SFR-1 SETTING BUDGET TERMS FOR KSTP 143 AND KPER 2 TO BUDGET FILE TERMS FROM KSTP 1 AND KPER 2

end timestep


start timestep kper="2" kstp="144" mode="normal"


 FMI SETTING BUDGET TERMS FOR KSTP 144 AND KPER 2 TO BUDGET FILE TERMS FROM KSTP 1 AND KPER 2

 FMI SETTING HEAD FOR KSTP 144 AND KPER 2 TO BINARY FILE HEADS FROM KSTP 1 AND KPER 2

 SFR-1 SETTING BUDGET TERMS FOR KSTP 144 AND KPER 2 TO BUDGET FILE TERMS FROM KSTP 1 AND KPER 2

end timestep


start timestep kper="2" kstp="145" mode="normal"


 FMI SETTING BUDGET TERMS FOR KSTP 145 AND KPER 2 TO BUDGET FILE TERMS FROM KSTP 1 AND KPER 2

 FMI SETTING HEAD FOR KSTP 145 AND KPER 2 TO BINARY FILE HEADS FROM KSTP 1 AND KPER 2

 SFR-1 SETTING BUDGET TERMS FOR KSTP 145 AND KPER 2 TO BUDGET FILE TERMS FROM KSTP 1 AND KPER 2

end timestep


start timestep kper="2" kstp="146" mode="normal"


 FMI SETTING BUDGET TERMS FOR KSTP 146 AND KPER 2 TO BUDGET FILE TERMS FROM KSTP 1 AND KPER 2

 FMI SETTING HEAD FOR KSTP 146 AND KPER 2 TO BINARY FILE HEADS FROM KSTP 1 AND KPER 2

 SFR-1 SETTING BUDGET TERMS FOR KSTP 146 AND KPER 2 TO BUDGET FILE TERMS FROM KSTP 1 AND KPER 2

end timestep


start timestep kper="2" kstp="147" mode="normal"


 FMI SETTING BUDGET TERMS FOR KSTP 147 AND KPER 2 TO BUDGET FILE TERMS FROM KSTP 1 AND KPER 2

 FMI SETTING HEAD FOR KSTP 147 AND KPER 2 TO BINARY FILE HEADS FROM KSTP 1 AND KPER 2

 SFR-1 SETTING BUDGET TERMS FOR KSTP 147 AND KPER 2 TO BUDGET FILE TERMS FROM KSTP 1 AND KPER 2

end timestep


start timestep kper="2" kstp="148" mode="normal"


 FMI SETTING BUDGET TERMS FOR KSTP 148 AND KPER 2 TO BUDGET FILE TERMS FROM KSTP 1 AND KPER 2

 FMI SETTING HEAD FOR KSTP 148 AND KPER 2 TO BINARY FILE HEADS FROM KSTP 1 AND KPER 2

 SFR-1 SETTING BUDGET TERMS FOR KSTP 148 AND KPER 2 TO BUDGET FILE TERMS FROM KSTP 1 AND KPER 2

end timestep


start timestep kper="2" kstp="149" mode="normal"


 FMI SETTING BUDGET TERMS FOR KSTP 149 AND KPER 2 TO BUDGET FILE TERMS FROM KSTP 1 AND KPER 2

 FMI SETTING HEAD FOR KSTP 149 AND KPER 2 TO BINARY FILE HEADS FROM KSTP 1 AND KPER 2

 SFR-1 SETTING BUDGET TERMS FOR KSTP 149 AND KPER 2 TO BUDGET FILE TERMS FROM KSTP 1 AND KPER 2

end timestep


start timestep kper="2" kstp="150" mode="normal"


 FMI SETTING BUDGET TERMS FOR KSTP 150 AND KPER 2 TO BUDGET FILE TERMS FROM KSTP 1 AND KPER 2

 FMI SETTING HEAD FOR KSTP 150 AND KPER 2 TO BINARY FILE HEADS FROM KSTP 1 AND KPER 2

 SFR-1 SETTING BUDGET TERMS FOR KSTP 150 AND KPER 2 TO BUDGET FILE TERMS FROM KSTP 1 AND KPER 2

 CONCENTRATION WILL BE SAVED ON UNIT 1024 AT END OF TIME STEP  150, STRESS PERIOD    2

end timestep


start timestep kper="2" kstp="151" mode="normal"


 FMI SETTING BUDGET TERMS FOR KSTP 151 AND KPER 2 TO BUDGET FILE TERMS FROM KSTP 1 AND KPER 2

 FMI SETTING HEAD FOR KSTP 151 AND KPER 2 TO BINARY FILE HEADS FROM KSTP 1 AND KPER 2

 SFR-1 SETTING BUDGET TERMS FOR KSTP 151 AND KPER 2 TO BUDGET FILE TERMS FROM KSTP 1 AND KPER 2

end timestep


start timestep kper="2" kstp="152" mode="normal"


 FMI SETTING BUDGET TERMS FOR KSTP 152 AND KPER 2 TO BUDGET FILE TERMS FROM KSTP 1 AND KPER 2

 FMI SETTING HEAD FOR KSTP 152 AND KPER 2 TO BINARY FILE HEADS FROM KSTP 1 AND KPER 2

 SFR-1 SETTING BUDGET TERMS FOR KSTP 152 AND KPER 2 TO BUDGET FILE TERMS FROM KSTP 1 AND KPER 2

end timestep


start timestep kper="2" kstp="153" mode="normal"


 FMI SETTING BUDGET TERMS FOR KSTP 153 AND KPER 2 TO BUDGET FILE TERMS FROM KSTP 1 AND KPER 2

 FMI SETTING HEAD FOR KSTP 153 AND KPER 2 TO BINARY FILE HEADS FROM KSTP 1 AND KPER 2

 SFR-1 SETTING BUDGET TERMS FOR KSTP 153 AND KPER 2 TO BUDGET FILE TERMS FROM KSTP 1 AND KPER 2

end timestep


start timestep kper="2" kstp="154" mode="normal"


 FMI SETTING BUDGET TERMS FOR KSTP 154 AND KPER 2 TO BUDGET FILE TERMS FROM KSTP 1 AND KPER 2

 FMI SETTING HEAD FOR KSTP 154 AND KPER 2 TO BINARY FILE HEADS FROM KSTP 1 AND KPER 2

 SFR-1 SETTING BUDGET TERMS FOR KSTP 154 AND KPER 2 TO BUDGET FILE TERMS FROM KSTP 1 AND KPER 2

end timestep


start timestep kper="2" kstp="155" mode="normal"


 FMI SETTING BUDGET TERMS FOR KSTP 155 AND KPER 2 TO BUDGET FILE TERMS FROM KSTP 1 AND KPER 2

 FMI SETTING HEAD FOR KSTP 155 AND KPER 2 TO BINARY FILE HEADS FROM KSTP 1 AND KPER 2

 SFR-1 SETTING BUDGET TERMS FOR KSTP 155 AND KPER 2 TO BUDGET FILE TERMS FROM KSTP 1 AND KPER 2

end timestep


start timestep kper="2" kstp="156" mode="normal"


 FMI SETTING BUDGET TERMS FOR KSTP 156 AND KPER 2 TO BUDGET FILE TERMS FROM KSTP 1 AND KPER 2

 FMI SETTING HEAD FOR KSTP 156 AND KPER 2 TO BINARY FILE HEADS FROM KSTP 1 AND KPER 2

 SFR-1 SETTING BUDGET TERMS FOR KSTP 156 AND KPER 2 TO BUDGET FILE TERMS FROM KSTP 1 AND KPER 2

end timestep


start timestep kper="2" kstp="157" mode="normal"


 FMI SETTING BUDGET TERMS FOR KSTP 157 AND KPER 2 TO BUDGET FILE TERMS FROM KSTP 1 AND KPER 2

 FMI SETTING HEAD FOR KSTP 157 AND KPER 2 TO BINARY FILE HEADS FROM KSTP 1 AND KPER 2

 SFR-1 SETTING BUDGET TERMS FOR KSTP 157 AND KPER 2 TO BUDGET FILE TERMS FROM KSTP 1 AND KPER 2

end timestep


start timestep kper="2" kstp="158" mode="normal"


 FMI SETTING BUDGET TERMS FOR KSTP 158 AND KPER 2 TO BUDGET FILE TERMS FROM KSTP 1 AND KPER 2

 FMI SETTING HEAD FOR KSTP 158 AND KPER 2 TO BINARY FILE HEADS FROM KSTP 1 AND KPER 2

 SFR-1 SETTING BUDGET TERMS FOR KSTP 158 AND KPER 2 TO BUDGET FILE TERMS FROM KSTP 1 AND KPER 2

end timestep


start timestep kper="2" kstp="159" mode="normal"


 FMI SETTING BUDGET TERMS FOR KSTP 159 AND KPER 2 TO BUDGET FILE TERMS FROM KSTP 1 AND KPER 2

 FMI SETTING HEAD FOR KSTP 159 AND KPER 2 TO BINARY FILE HEADS FROM KSTP 1 AND KPER 2

 SFR-1 SETTING BUDGET TERMS FOR KSTP 159 AND KPER 2 TO BUDGET FILE TERMS FROM KSTP 1 AND KPER 2

end timestep


start timestep kper="2" kstp="160" mode="normal"


 FMI SETTING BUDGET TERMS FOR KSTP 160 AND KPER 2 TO BUDGET FILE TERMS FROM KSTP 1 AND KPER 2

 FMI SETTING HEAD FOR KSTP 160 AND KPER 2 TO BINARY FILE HEADS FROM KSTP 1 AND KPER 2

 SFR-1 SETTING BUDGET TERMS FOR KSTP 160 AND KPER 2 TO BUDGET FILE TERMS FROM KSTP 1 AND KPER 2

 CONCENTRATION WILL BE SAVED ON UNIT 1024 AT END OF TIME STEP  160, STRESS PERIOD    2

end timestep


start timestep kper="2" kstp="161" mode="normal"


 FMI SETTING BUDGET TERMS FOR KSTP 161 AND KPER 2 TO BUDGET FILE TERMS FROM KSTP 1 AND KPER 2

 FMI SETTING HEAD FOR KSTP 161 AND KPER 2 TO BINARY FILE HEADS FROM KSTP 1 AND KPER 2

 SFR-1 SETTING BUDGET TERMS FOR KSTP 161 AND KPER 2 TO BUDGET FILE TERMS FROM KSTP 1 AND KPER 2

end timestep


start timestep kper="2" kstp="162" mode="normal"


 FMI SETTING BUDGET TERMS FOR KSTP 162 AND KPER 2 TO BUDGET FILE TERMS FROM KSTP 1 AND KPER 2

 FMI SETTING HEAD FOR KSTP 162 AND KPER 2 TO BINARY FILE HEADS FROM KSTP 1 AND KPER 2

 SFR-1 SETTING BUDGET TERMS FOR KSTP 162 AND KPER 2 TO BUDGET FILE TERMS FROM KSTP 1 AND KPER 2

end timestep


start timestep kper="2" kstp="163" mode="normal"


 FMI SETTING BUDGET TERMS FOR KSTP 163 AND KPER 2 TO BUDGET FILE TERMS FROM KSTP 1 AND KPER 2

 FMI SETTING HEAD FOR KSTP 163 AND KPER 2 TO BINARY FILE HEADS FROM KSTP 1 AND KPER 2

 SFR-1 SETTING BUDGET TERMS FOR KSTP 163 AND KPER 2 TO BUDGET FILE TERMS FROM KSTP 1 AND KPER 2

end timestep


start timestep kper="2" kstp="164" mode="normal"


 FMI SETTING BUDGET TERMS FOR KSTP 164 AND KPER 2 TO BUDGET FILE TERMS FROM KSTP 1 AND KPER 2

 FMI SETTING HEAD FOR KSTP 164 AND KPER 2 TO BINARY FILE HEADS FROM KSTP 1 AND KPER 2

 SFR-1 SETTING BUDGET TERMS FOR KSTP 164 AND KPER 2 TO BUDGET FILE TERMS FROM KSTP 1 AND KPER 2

end timestep


start timestep kper="2" kstp="165" mode="normal"


 FMI SETTING BUDGET TERMS FOR KSTP 165 AND KPER 2 TO BUDGET FILE TERMS FROM KSTP 1 AND KPER 2

 FMI SETTING HEAD FOR KSTP 165 AND KPER 2 TO BINARY FILE HEADS FROM KSTP 1 AND KPER 2

 SFR-1 SETTING BUDGET TERMS FOR KSTP 165 AND KPER 2 TO BUDGET FILE TERMS FROM KSTP 1 AND KPER 2

end timestep


start timestep kper="2" kstp="166" mode="normal"


 FMI SETTING BUDGET TERMS FOR KSTP 166 AND KPER 2 TO BUDGET FILE TERMS FROM KSTP 1 AND KPER 2

 FMI SETTING HEAD FOR KSTP 166 AND KPER 2 TO BINARY FILE HEADS FROM KSTP 1 AND KPER 2

 SFR-1 SETTING BUDGET TERMS FOR KSTP 166 AND KPER 2 TO BUDGET FILE TERMS FROM KSTP 1 AND KPER 2

end timestep


start timestep kper="2" kstp="167" mode="normal"


 FMI SETTING BUDGET TERMS FOR KSTP 167 AND KPER 2 TO BUDGET FILE TERMS FROM KSTP 1 AND KPER 2

 FMI SETTING HEAD FOR KSTP 167 AND KPER 2 TO BINARY FILE HEADS FROM KSTP 1 AND KPER 2

 SFR-1 SETTING BUDGET TERMS FOR KSTP 167 AND KPER 2 TO BUDGET FILE TERMS FROM KSTP 1 AND KPER 2

end timestep


start timestep kper="2" kstp="168" mode="normal"


 FMI SETTING BUDGET TERMS FOR KSTP 168 AND KPER 2 TO BUDGET FILE TERMS FROM KSTP 1 AND KPER 2

 FMI SETTING HEAD FOR KSTP 168 AND KPER 2 TO BINARY FILE HEADS FROM KSTP 1 AND KPER 2

 SFR-1 SETTING BUDGET TERMS FOR KSTP 168 AND KPER 2 TO BUDGET FILE TERMS FROM KSTP 1 AND KPER 2

end timestep


start timestep kper="2" kstp="169" mode="normal"


 FMI SETTING BUDGET TERMS FOR KSTP 169 AND KPER 2 TO BUDGET FILE TERMS FROM KSTP 1 AND KPER 2

 FMI SETTING HEAD FOR KSTP 169 AND KPER 2 TO BINARY FILE HEADS FROM KSTP 1 AND KPER 2

 SFR-1 SETTING BUDGET TERMS FOR KSTP 169 AND KPER 2 TO BUDGET FILE TERMS FROM KSTP 1 AND KPER 2

end timestep


start timestep kper="2" kstp="170" mode="normal"


 FMI SETTING BUDGET TERMS FOR KSTP 170 AND KPER 2 TO BUDGET FILE TERMS FROM KSTP 1 AND KPER 2

 FMI SETTING HEAD FOR KSTP 170 AND KPER 2 TO BINARY FILE HEADS FROM KSTP 1 AND KPER 2

 SFR-1 SETTING BUDGET TERMS FOR KSTP 170 AND KPER 2 TO BUDGET FILE TERMS FROM KSTP 1 AND KPER 2

 CONCENTRATION WILL BE SAVED ON UNIT 1024 AT END OF TIME STEP  170, STRESS PERIOD    2

end timestep


start timestep kper="2" kstp="171" mode="normal"


 FMI SETTING BUDGET TERMS FOR KSTP 171 AND KPER 2 TO BUDGET FILE TERMS FROM KSTP 1 AND KPER 2

 FMI SETTING HEAD FOR KSTP 171 AND KPER 2 TO BINARY FILE HEADS FROM KSTP 1 AND KPER 2

 SFR-1 SETTING BUDGET TERMS FOR KSTP 171 AND KPER 2 TO BUDGET FILE TERMS FROM KSTP 1 AND KPER 2

end timestep


start timestep kper="2" kstp="172" mode="normal"


 FMI SETTING BUDGET TERMS FOR KSTP 172 AND KPER 2 TO BUDGET FILE TERMS FROM KSTP 1 AND KPER 2

 FMI SETTING HEAD FOR KSTP 172 AND KPER 2 TO BINARY FILE HEADS FROM KSTP 1 AND KPER 2

 SFR-1 SETTING BUDGET TERMS FOR KSTP 172 AND KPER 2 TO BUDGET FILE TERMS FROM KSTP 1 AND KPER 2

end timestep


start timestep kper="2" kstp="173" mode="normal"


 FMI SETTING BUDGET TERMS FOR KSTP 173 AND KPER 2 TO BUDGET FILE TERMS FROM KSTP 1 AND KPER 2

 FMI SETTING HEAD FOR KSTP 173 AND KPER 2 TO BINARY FILE HEADS FROM KSTP 1 AND KPER 2

 SFR-1 SETTING BUDGET TERMS FOR KSTP 173 AND KPER 2 TO BUDGET FILE TERMS FROM KSTP 1 AND KPER 2

end timestep


start timestep kper="2" kstp="174" mode="normal"


 FMI SETTING BUDGET TERMS FOR KSTP 174 AND KPER 2 TO BUDGET FILE TERMS FROM KSTP 1 AND KPER 2

 FMI SETTING HEAD FOR KSTP 174 AND KPER 2 TO BINARY FILE HEADS FROM KSTP 1 AND KPER 2

 SFR-1 SETTING BUDGET TERMS FOR KSTP 174 AND KPER 2 TO BUDGET FILE TERMS FROM KSTP 1 AND KPER 2

end timestep


start timestep kper="2" kstp="175" mode="normal"


 FMI SETTING BUDGET TERMS FOR KSTP 175 AND KPER 2 TO BUDGET FILE TERMS FROM KSTP 1 AND KPER 2

 FMI SETTING HEAD FOR KSTP 175 AND KPER 2 TO BINARY FILE HEADS FROM KSTP 1 AND KPER 2

 SFR-1 SETTING BUDGET TERMS FOR KSTP 175 AND KPER 2 TO BUDGET FILE TERMS FROM KSTP 1 AND KPER 2

end timestep


start timestep kper="2" kstp="176" mode="normal"


 FMI SETTING BUDGET TERMS FOR KSTP 176 AND KPER 2 TO BUDGET FILE TERMS FROM KSTP 1 AND KPER 2

 FMI SETTING HEAD FOR KSTP 176 AND KPER 2 TO BINARY FILE HEADS FROM KSTP 1 AND KPER 2

 SFR-1 SETTING BUDGET TERMS FOR KSTP 176 AND KPER 2 TO BUDGET FILE TERMS FROM KSTP 1 AND KPER 2

end timestep


start timestep kper="2" kstp="177" mode="normal"


 FMI SETTING BUDGET TERMS FOR KSTP 177 AND KPER 2 TO BUDGET FILE TERMS FROM KSTP 1 AND KPER 2

 FMI SETTING HEAD FOR KSTP 177 AND KPER 2 TO BINARY FILE HEADS FROM KSTP 1 AND KPER 2

 SFR-1 SETTING BUDGET TERMS FOR KSTP 177 AND KPER 2 TO BUDGET FILE TERMS FROM KSTP 1 AND KPER 2

end timestep


start timestep kper="2" kstp="178" mode="normal"


 FMI SETTING BUDGET TERMS FOR KSTP 178 AND KPER 2 TO BUDGET FILE TERMS FROM KSTP 1 AND KPER 2

 FMI SETTING HEAD FOR KSTP 178 AND KPER 2 TO BINARY FILE HEADS FROM KSTP 1 AND KPER 2

 SFR-1 SETTING BUDGET TERMS FOR KSTP 178 AND KPER 2 TO BUDGET FILE TERMS FROM KSTP 1 AND KPER 2

end timestep


start timestep kper="2" kstp="179" mode="normal"


 FMI SETTING BUDGET TERMS FOR KSTP 179 AND KPER 2 TO BUDGET FILE TERMS FROM KSTP 1 AND KPER 2

 FMI SETTING HEAD FOR KSTP 179 AND KPER 2 TO BINARY FILE HEADS FROM KSTP 1 AND KPER 2

 SFR-1 SETTING BUDGET TERMS FOR KSTP 179 AND KPER 2 TO BUDGET FILE TERMS FROM KSTP 1 AND KPER 2

end timestep


start timestep kper="2" kstp="180" mode="normal"


 FMI SETTING BUDGET TERMS FOR KSTP 180 AND KPER 2 TO BUDGET FILE TERMS FROM KSTP 1 AND KPER 2

 FMI SETTING HEAD FOR KSTP 180 AND KPER 2 TO BINARY FILE HEADS FROM KSTP 1 AND KPER 2

 SFR-1 SETTING BUDGET TERMS FOR KSTP 180 AND KPER 2 TO BUDGET FILE TERMS FROM KSTP 1 AND KPER 2

 CONCENTRATION WILL BE SAVED ON UNIT 1024 AT END OF TIME STEP  180, STRESS PERIOD    2

end timestep


start timestep kper="2" kstp="181" mode="normal"


 FMI SETTING BUDGET TERMS FOR KSTP 181 AND KPER 2 TO BUDGET FILE TERMS FROM KSTP 1 AND KPER 2

 FMI SETTING HEAD FOR KSTP 181 AND KPER 2 TO BINARY FILE HEADS FROM KSTP 1 AND KPER 2

 SFR-1 SETTING BUDGET TERMS FOR KSTP 181 AND KPER 2 TO BUDGET FILE TERMS FROM KSTP 1 AND KPER 2

end timestep


start timestep kper="2" kstp="182" mode="normal"


 FMI SETTING BUDGET TERMS FOR KSTP 182 AND KPER 2 TO BUDGET FILE TERMS FROM KSTP 1 AND KPER 2

 FMI SETTING HEAD FOR KSTP 182 AND KPER 2 TO BINARY FILE HEADS FROM KSTP 1 AND KPER 2

 SFR-1 SETTING BUDGET TERMS FOR KSTP 182 AND KPER 2 TO BUDGET FILE TERMS FROM KSTP 1 AND KPER 2

end timestep


start timestep kper="2" kstp="183" mode="normal"


 FMI SETTING BUDGET TERMS FOR KSTP 183 AND KPER 2 TO BUDGET FILE TERMS FROM KSTP 1 AND KPER 2

 FMI SETTING HEAD FOR KSTP 183 AND KPER 2 TO BINARY FILE HEADS FROM KSTP 1 AND KPER 2

 SFR-1 SETTING BUDGET TERMS FOR KSTP 183 AND KPER 2 TO BUDGET FILE TERMS FROM KSTP 1 AND KPER 2

end timestep


start timestep kper="2" kstp="184" mode="normal"


 FMI SETTING BUDGET TERMS FOR KSTP 184 AND KPER 2 TO BUDGET FILE TERMS FROM KSTP 1 AND KPER 2

 FMI SETTING HEAD FOR KSTP 184 AND KPER 2 TO BINARY FILE HEADS FROM KSTP 1 AND KPER 2

 SFR-1 SETTING BUDGET TERMS FOR KSTP 184 AND KPER 2 TO BUDGET FILE TERMS FROM KSTP 1 AND KPER 2

end timestep


start timestep kper="2" kstp="185" mode="normal"


 FMI SETTING BUDGET TERMS FOR KSTP 185 AND KPER 2 TO BUDGET FILE TERMS FROM KSTP 1 AND KPER 2

 FMI SETTING HEAD FOR KSTP 185 AND KPER 2 TO BINARY FILE HEADS FROM KSTP 1 AND KPER 2

 SFR-1 SETTING BUDGET TERMS FOR KSTP 185 AND KPER 2 TO BUDGET FILE TERMS FROM KSTP 1 AND KPER 2

end timestep


start timestep kper="2" kstp="186" mode="normal"


 FMI SETTING BUDGET TERMS FOR KSTP 186 AND KPER 2 TO BUDGET FILE TERMS FROM KSTP 1 AND KPER 2

 FMI SETTING HEAD FOR KSTP 186 AND KPER 2 TO BINARY FILE HEADS FROM KSTP 1 AND KPER 2

 SFR-1 SETTING BUDGET TERMS FOR KSTP 186 AND KPER 2 TO BUDGET FILE TERMS FROM KSTP 1 AND KPER 2

end timestep


start timestep kper="2" kstp="187" mode="normal"


 FMI SETTING BUDGET TERMS FOR KSTP 187 AND KPER 2 TO BUDGET FILE TERMS FROM KSTP 1 AND KPER 2

 FMI SETTING HEAD FOR KSTP 187 AND KPER 2 TO BINARY FILE HEADS FROM KSTP 1 AND KPER 2

 SFR-1 SETTING BUDGET TERMS FOR KSTP 187 AND KPER 2 TO BUDGET FILE TERMS FROM KSTP 1 AND KPER 2

end timestep


start timestep kper="2" kstp="188" mode="normal"


 FMI SETTING BUDGET TERMS FOR KSTP 188 AND KPER 2 TO BUDGET FILE TERMS FROM KSTP 1 AND KPER 2

 FMI SETTING HEAD FOR KSTP 188 AND KPER 2 TO BINARY FILE HEADS FROM KSTP 1 AND KPER 2

 SFR-1 SETTING BUDGET TERMS FOR KSTP 188 AND KPER 2 TO BUDGET FILE TERMS FROM KSTP 1 AND KPER 2

end timestep


start timestep kper="2" kstp="189" mode="normal"


 FMI SETTING BUDGET TERMS FOR KSTP 189 AND KPER 2 TO BUDGET FILE TERMS FROM KSTP 1 AND KPER 2

 FMI SETTING HEAD FOR KSTP 189 AND KPER 2 TO BINARY FILE HEADS FROM KSTP 1 AND KPER 2

 SFR-1 SETTING BUDGET TERMS FOR KSTP 189 AND KPER 2 TO BUDGET FILE TERMS FROM KSTP 1 AND KPER 2

end timestep


start timestep kper="2" kstp="190" mode="normal"


 FMI SETTING BUDGET TERMS FOR KSTP 190 AND KPER 2 TO BUDGET FILE TERMS FROM KSTP 1 AND KPER 2

 FMI SETTING HEAD FOR KSTP 190 AND KPER 2 TO BINARY FILE HEADS FROM KSTP 1 AND KPER 2

 SFR-1 SETTING BUDGET TERMS FOR KSTP 190 AND KPER 2 TO BUDGET FILE TERMS FROM KSTP 1 AND KPER 2

 CONCENTRATION WILL BE SAVED ON UNIT 1024 AT END OF TIME STEP  190, STRESS PERIOD    2

end timestep


start timestep kper="2" kstp="191" mode="normal"


 FMI SETTING BUDGET TERMS FOR KSTP 191 AND KPER 2 TO BUDGET FILE TERMS FROM KSTP 1 AND KPER 2

 FMI SETTING HEAD FOR KSTP 191 AND KPER 2 TO BINARY FILE HEADS FROM KSTP 1 AND KPER 2

 SFR-1 SETTING BUDGET TERMS FOR KSTP 191 AND KPER 2 TO BUDGET FILE TERMS FROM KSTP 1 AND KPER 2

end timestep


start timestep kper="2" kstp="192" mode="normal"


 FMI SETTING BUDGET TERMS FOR KSTP 192 AND KPER 2 TO BUDGET FILE TERMS FROM KSTP 1 AND KPER 2

 FMI SETTING HEAD FOR KSTP 192 AND KPER 2 TO BINARY FILE HEADS FROM KSTP 1 AND KPER 2

 SFR-1 SETTING BUDGET TERMS FOR KSTP 192 AND KPER 2 TO BUDGET FILE TERMS FROM KSTP 1 AND KPER 2

end timestep


start timestep kper="2" kstp="193" mode="normal"


 FMI SETTING BUDGET TERMS FOR KSTP 193 AND KPER 2 TO BUDGET FILE TERMS FROM KSTP 1 AND KPER 2

 FMI SETTING HEAD FOR KSTP 193 AND KPER 2 TO BINARY FILE HEADS FROM KSTP 1 AND KPER 2

 SFR-1 SETTING BUDGET TERMS FOR KSTP 193 AND KPER 2 TO BUDGET FILE TERMS FROM KSTP 1 AND KPER 2

end timestep


start timestep kper="2" kstp="194" mode="normal"


 FMI SETTING BUDGET TERMS FOR KSTP 194 AND KPER 2 TO BUDGET FILE TERMS FROM KSTP 1 AND KPER 2

 FMI SETTING HEAD FOR KSTP 194 AND KPER 2 TO BINARY FILE HEADS FROM KSTP 1 AND KPER 2

 SFR-1 SETTING BUDGET TERMS FOR KSTP 194 AND KPER 2 TO BUDGET FILE TERMS FROM KSTP 1 AND KPER 2

end timestep


start timestep kper="2" kstp="195" mode="normal"


 FMI SETTING BUDGET TERMS FOR KSTP 195 AND KPER 2 TO BUDGET FILE TERMS FROM KSTP 1 AND KPER 2

 FMI SETTING HEAD FOR KSTP 195 AND KPER 2 TO BINARY FILE HEADS FROM KSTP 1 AND KPER 2

 SFR-1 SETTING BUDGET TERMS FOR KSTP 195 AND KPER 2 TO BUDGET FILE TERMS FROM KSTP 1 AND KPER 2

end timestep


start timestep kper="2" kstp="196" mode="normal"


 FMI SETTING BUDGET TERMS FOR KSTP 196 AND KPER 2 TO BUDGET FILE TERMS FROM KSTP 1 AND KPER 2

 FMI SETTING HEAD FOR KSTP 196 AND KPER 2 TO BINARY FILE HEADS FROM KSTP 1 AND KPER 2

 SFR-1 SETTING BUDGET TERMS FOR KSTP 196 AND KPER 2 TO BUDGET FILE TERMS FROM KSTP 1 AND KPER 2

end timestep


start timestep kper="2" kstp="197" mode="normal"


 FMI SETTING BUDGET TERMS FOR KSTP 197 AND KPER 2 TO BUDGET FILE TERMS FROM KSTP 1 AND KPER 2

 FMI SETTING HEAD FOR KSTP 197 AND KPER 2 TO BINARY FILE HEADS FROM KSTP 1 AND KPER 2

 SFR-1 SETTING BUDGET TERMS FOR KSTP 197 AND KPER 2 TO BUDGET FILE TERMS FROM KSTP 1 AND KPER 2

end timestep


start timestep kper="2" kstp="198" mode="normal"


 FMI SETTING BUDGET TERMS FOR KSTP 198 AND KPER 2 TO BUDGET FILE TERMS FROM KSTP 1 AND KPER 2

 FMI SETTING HEAD FOR KSTP 198 AND KPER 2 TO BINARY FILE HEADS FROM KSTP 1 AND KPER 2

 SFR-1 SETTING BUDGET TERMS FOR KSTP 198 AND KPER 2 TO BUDGET FILE TERMS FROM KSTP 1 AND KPER 2

end timestep


start timestep kper="2" kstp="199" mode="normal"


 FMI SETTING BUDGET TERMS FOR KSTP 199 AND KPER 2 TO BUDGET FILE TERMS FROM KSTP 1 AND KPER 2

 FMI SETTING HEAD FOR KSTP 199 AND KPER 2 TO BINARY FILE HEADS FROM KSTP 1 AND KPER 2

 SFR-1 SETTING BUDGET TERMS FOR KSTP 199 AND KPER 2 TO BUDGET FILE TERMS FROM KSTP 1 AND KPER 2

end timestep


start timestep kper="2" kstp="200" mode="normal"


 FMI SETTING BUDGET TERMS FOR KSTP 200 AND KPER 2 TO BUDGET FILE TERMS FROM KSTP 1 AND KPER 2

 FMI SETTING HEAD FOR KSTP 200 AND KPER 2 TO BINARY FILE HEADS FROM KSTP 1 AND KPER 2

 SFR-1 SETTING BUDGET TERMS FOR KSTP 200 AND KPER 2 TO BUDGET FILE TERMS FROM KSTP 1 AND KPER 2

 CONCENTRATION WILL BE SAVED ON UNIT 1024 AT END OF TIME STEP  200, STRESS PERIOD    2

end timestep


start timestep kper="2" kstp="201" mode="normal"


 FMI SETTING BUDGET TERMS FOR KSTP 201 AND KPER 2 TO BUDGET FILE TERMS FROM KSTP 1 AND KPER 2

 FMI SETTING HEAD FOR KSTP 201 AND KPER 2 TO BINARY FILE HEADS FROM KSTP 1 AND KPER 2

 SFR-1 SETTING BUDGET TERMS FOR KSTP 201 AND KPER 2 TO BUDGET FILE TERMS FROM KSTP 1 AND KPER 2

end timestep


start timestep kper="2" kstp="202" mode="normal"


 FMI SETTING BUDGET TERMS FOR KSTP 202 AND KPER 2 TO BUDGET FILE TERMS FROM KSTP 1 AND KPER 2

 FMI SETTING HEAD FOR KSTP 202 AND KPER 2 TO BINARY FILE HEADS FROM KSTP 1 AND KPER 2

 SFR-1 SETTING BUDGET TERMS FOR KSTP 202 AND KPER 2 TO BUDGET FILE TERMS FROM KSTP 1 AND KPER 2

end timestep


start timestep kper="2" kstp="203" mode="normal"


 FMI SETTING BUDGET TERMS FOR KSTP 203 AND KPER 2 TO BUDGET FILE TERMS FROM KSTP 1 AND KPER 2

 FMI SETTING HEAD FOR KSTP 203 AND KPER 2 TO BINARY FILE HEADS FROM KSTP 1 AND KPER 2

 SFR-1 SETTING BUDGET TERMS FOR KSTP 203 AND KPER 2 TO BUDGET FILE TERMS FROM KSTP 1 AND KPER 2

end timestep


start timestep kper="2" kstp="204" mode="normal"


 FMI SETTING BUDGET TERMS FOR KSTP 204 AND KPER 2 TO BUDGET FILE TERMS FROM KSTP 1 AND KPER 2

 FMI SETTING HEAD FOR KSTP 204 AND KPER 2 TO BINARY FILE HEADS FROM KSTP 1 AND KPER 2

 SFR-1 SETTING BUDGET TERMS FOR KSTP 204 AND KPER 2 TO BUDGET FILE TERMS FROM KSTP 1 AND KPER 2

end timestep


start timestep kper="2" kstp="205" mode="normal"


 FMI SETTING BUDGET TERMS FOR KSTP 205 AND KPER 2 TO BUDGET FILE TERMS FROM KSTP 1 AND KPER 2

 FMI SETTING HEAD FOR KSTP 205 AND KPER 2 TO BINARY FILE HEADS FROM KSTP 1 AND KPER 2

 SFR-1 SETTING BUDGET TERMS FOR KSTP 205 AND KPER 2 TO BUDGET FILE TERMS FROM KSTP 1 AND KPER 2

end timestep


start timestep kper="2" kstp="206" mode="normal"


 FMI SETTING BUDGET TERMS FOR KSTP 206 AND KPER 2 TO BUDGET FILE TERMS FROM KSTP 1 AND KPER 2

 FMI SETTING HEAD FOR KSTP 206 AND KPER 2 TO BINARY FILE HEADS FROM KSTP 1 AND KPER 2

 SFR-1 SETTING BUDGET TERMS FOR KSTP 206 AND KPER 2 TO BUDGET FILE TERMS FROM KSTP 1 AND KPER 2

end timestep


start timestep kper="2" kstp="207" mode="normal"


 FMI SETTING BUDGET TERMS FOR KSTP 207 AND KPER 2 TO BUDGET FILE TERMS FROM KSTP 1 AND KPER 2

 FMI SETTING HEAD FOR KSTP 207 AND KPER 2 TO BINARY FILE HEADS FROM KSTP 1 AND KPER 2

 SFR-1 SETTING BUDGET TERMS FOR KSTP 207 AND KPER 2 TO BUDGET FILE TERMS FROM KSTP 1 AND KPER 2

end timestep


start timestep kper="2" kstp="208" mode="normal"


 FMI SETTING BUDGET TERMS FOR KSTP 208 AND KPER 2 TO BUDGET FILE TERMS FROM KSTP 1 AND KPER 2

 FMI SETTING HEAD FOR KSTP 208 AND KPER 2 TO BINARY FILE HEADS FROM KSTP 1 AND KPER 2

 SFR-1 SETTING BUDGET TERMS FOR KSTP 208 AND KPER 2 TO BUDGET FILE TERMS FROM KSTP 1 AND KPER 2

end timestep


start timestep kper="2" kstp="209" mode="normal"


 FMI SETTING BUDGET TERMS FOR KSTP 209 AND KPER 2 TO BUDGET FILE TERMS FROM KSTP 1 AND KPER 2

 FMI SETTING HEAD FOR KSTP 209 AND KPER 2 TO BINARY FILE HEADS FROM KSTP 1 AND KPER 2

 SFR-1 SETTING BUDGET TERMS FOR KSTP 209 AND KPER 2 TO BUDGET FILE TERMS FROM KSTP 1 AND KPER 2

end timestep


start timestep kper="2" kstp="210" mode="normal"


 FMI SETTING BUDGET TERMS FOR KSTP 210 AND KPER 2 TO BUDGET FILE TERMS FROM KSTP 1 AND KPER 2

 FMI SETTING HEAD FOR KSTP 210 AND KPER 2 TO BINARY FILE HEADS FROM KSTP 1 AND KPER 2

 SFR-1 SETTING BUDGET TERMS FOR KSTP 210 AND KPER 2 TO BUDGET FILE TERMS FROM KSTP 1 AND KPER 2

 CONCENTRATION WILL BE SAVED ON UNIT 1024 AT END OF TIME STEP  210, STRESS PERIOD    2

end timestep


start timestep kper="2" kstp="211" mode="normal"


 FMI SETTING BUDGET TERMS FOR KSTP 211 AND KPER 2 TO BUDGET FILE TERMS FROM KSTP 1 AND KPER 2

 FMI SETTING HEAD FOR KSTP 211 AND KPER 2 TO BINARY FILE HEADS FROM KSTP 1 AND KPER 2

 SFR-1 SETTING BUDGET TERMS FOR KSTP 211 AND KPER 2 TO BUDGET FILE TERMS FROM KSTP 1 AND KPER 2

end timestep


start timestep kper="2" kstp="212" mode="normal"


 FMI SETTING BUDGET TERMS FOR KSTP 212 AND KPER 2 TO BUDGET FILE TERMS FROM KSTP 1 AND KPER 2

 FMI SETTING HEAD FOR KSTP 212 AND KPER 2 TO BINARY FILE HEADS FROM KSTP 1 AND KPER 2

 SFR-1 SETTING BUDGET TERMS FOR KSTP 212 AND KPER 2 TO BUDGET FILE TERMS FROM KSTP 1 AND KPER 2

end timestep


start timestep kper="2" kstp="213" mode="normal"


 FMI SETTING BUDGET TERMS FOR KSTP 213 AND KPER 2 TO BUDGET FILE TERMS FROM KSTP 1 AND KPER 2

 FMI SETTING HEAD FOR KSTP 213 AND KPER 2 TO BINARY FILE HEADS FROM KSTP 1 AND KPER 2

 SFR-1 SETTING BUDGET TERMS FOR KSTP 213 AND KPER 2 TO BUDGET FILE TERMS FROM KSTP 1 AND KPER 2

end timestep


start timestep kper="2" kstp="214" mode="normal"


 FMI SETTING BUDGET TERMS FOR KSTP 214 AND KPER 2 TO BUDGET FILE TERMS FROM KSTP 1 AND KPER 2

 FMI SETTING HEAD FOR KSTP 214 AND KPER 2 TO BINARY FILE HEADS FROM KSTP 1 AND KPER 2

 SFR-1 SETTING BUDGET TERMS FOR KSTP 214 AND KPER 2 TO BUDGET FILE TERMS FROM KSTP 1 AND KPER 2

end timestep


start timestep kper="2" kstp="215" mode="normal"


 FMI SETTING BUDGET TERMS FOR KSTP 215 AND KPER 2 TO BUDGET FILE TERMS FROM KSTP 1 AND KPER 2

 FMI SETTING HEAD FOR KSTP 215 AND KPER 2 TO BINARY FILE HEADS FROM KSTP 1 AND KPER 2

 SFR-1 SETTING BUDGET TERMS FOR KSTP 215 AND KPER 2 TO BUDGET FILE TERMS FROM KSTP 1 AND KPER 2

end timestep


start timestep kper="2" kstp="216" mode="normal"


 FMI SETTING BUDGET TERMS FOR KSTP 216 AND KPER 2 TO BUDGET FILE TERMS FROM KSTP 1 AND KPER 2

 FMI SETTING HEAD FOR KSTP 216 AND KPER 2 TO BINARY FILE HEADS FROM KSTP 1 AND KPER 2

 SFR-1 SETTING BUDGET TERMS FOR KSTP 216 AND KPER 2 TO BUDGET FILE TERMS FROM KSTP 1 AND KPER 2

end timestep


start timestep kper="2" kstp="217" mode="normal"


 FMI SETTING BUDGET TERMS FOR KSTP 217 AND KPER 2 TO BUDGET FILE TERMS FROM KSTP 1 AND KPER 2

 FMI SETTING HEAD FOR KSTP 217 AND KPER 2 TO BINARY FILE HEADS FROM KSTP 1 AND KPER 2

 SFR-1 SETTING BUDGET TERMS FOR KSTP 217 AND KPER 2 TO BUDGET FILE TERMS FROM KSTP 1 AND KPER 2

end timestep


start timestep kper="2" kstp="218" mode="normal"


 FMI SETTING BUDGET TERMS FOR KSTP 218 AND KPER 2 TO BUDGET FILE TERMS FROM KSTP 1 AND KPER 2

 FMI SETTING HEAD FOR KSTP 218 AND KPER 2 TO BINARY FILE HEADS FROM KSTP 1 AND KPER 2

 SFR-1 SETTING BUDGET TERMS FOR KSTP 218 AND KPER 2 TO BUDGET FILE TERMS FROM KSTP 1 AND KPER 2

end timestep


start timestep kper="2" kstp="219" mode="normal"


 FMI SETTING BUDGET TERMS FOR KSTP 219 AND KPER 2 TO BUDGET FILE TERMS FROM KSTP 1 AND KPER 2

 FMI SETTING HEAD FOR KSTP 219 AND KPER 2 TO BINARY FILE HEADS FROM KSTP 1 AND KPER 2

 SFR-1 SETTING BUDGET TERMS FOR KSTP 219 AND KPER 2 TO BUDGET FILE TERMS FROM KSTP 1 AND KPER 2

end timestep


start timestep kper="2" kstp="220" mode="normal"


 FMI SETTING BUDGET TERMS FOR KSTP 220 AND KPER 2 TO BUDGET FILE TERMS FROM KSTP 1 AND KPER 2

 FMI SETTING HEAD FOR KSTP 220 AND KPER 2 TO BINARY FILE HEADS FROM KSTP 1 AND KPER 2

 SFR-1 SETTING BUDGET TERMS FOR KSTP 220 AND KPER 2 TO BUDGET FILE TERMS FROM KSTP 1 AND KPER 2

 CONCENTRATION WILL BE SAVED ON UNIT 1024 AT END OF TIME STEP  220, STRESS PERIOD    2

end timestep


start timestep kper="2" kstp="221" mode="normal"


 FMI SETTING BUDGET TERMS FOR KSTP 221 AND KPER 2 TO BUDGET FILE TERMS FROM KSTP 1 AND KPER 2

 FMI SETTING HEAD FOR KSTP 221 AND KPER 2 TO BINARY FILE HEADS FROM KSTP 1 AND KPER 2

 SFR-1 SETTING BUDGET TERMS FOR KSTP 221 AND KPER 2 TO BUDGET FILE TERMS FROM KSTP 1 AND KPER 2

end timestep


start timestep kper="2" kstp="222" mode="normal"


 FMI SETTING BUDGET TERMS FOR KSTP 222 AND KPER 2 TO BUDGET FILE TERMS FROM KSTP 1 AND KPER 2

 FMI SETTING HEAD FOR KSTP 222 AND KPER 2 TO BINARY FILE HEADS FROM KSTP 1 AND KPER 2

 SFR-1 SETTING BUDGET TERMS FOR KSTP 222 AND KPER 2 TO BUDGET FILE TERMS FROM KSTP 1 AND KPER 2

end timestep


start timestep kper="2" kstp="223" mode="normal"


 FMI SETTING BUDGET TERMS FOR KSTP 223 AND KPER 2 TO BUDGET FILE TERMS FROM KSTP 1 AND KPER 2

 FMI SETTING HEAD FOR KSTP 223 AND KPER 2 TO BINARY FILE HEADS FROM KSTP 1 AND KPER 2

 SFR-1 SETTING BUDGET TERMS FOR KSTP 223 AND KPER 2 TO BUDGET FILE TERMS FROM KSTP 1 AND KPER 2

end timestep


start timestep kper="2" kstp="224" mode="normal"


 FMI SETTING BUDGET TERMS FOR KSTP 224 AND KPER 2 TO BUDGET FILE TERMS FROM KSTP 1 AND KPER 2

 FMI SETTING HEAD FOR KSTP 224 AND KPER 2 TO BINARY FILE HEADS FROM KSTP 1 AND KPER 2

 SFR-1 SETTING BUDGET TERMS FOR KSTP 224 AND KPER 2 TO BUDGET FILE TERMS FROM KSTP 1 AND KPER 2

end timestep


start timestep kper="2" kstp="225" mode="normal"


 FMI SETTING BUDGET TERMS FOR KSTP 225 AND KPER 2 TO BUDGET FILE TERMS FROM KSTP 1 AND KPER 2

 FMI SETTING HEAD FOR KSTP 225 AND KPER 2 TO BINARY FILE HEADS FROM KSTP 1 AND KPER 2

 SFR-1 SETTING BUDGET TERMS FOR KSTP 225 AND KPER 2 TO BUDGET FILE TERMS FROM KSTP 1 AND KPER 2

end timestep


start timestep kper="2" kstp="226" mode="normal"


 FMI SETTING BUDGET TERMS FOR KSTP 226 AND KPER 2 TO BUDGET FILE TERMS FROM KSTP 1 AND KPER 2

 FMI SETTING HEAD FOR KSTP 226 AND KPER 2 TO BINARY FILE HEADS FROM KSTP 1 AND KPER 2

 SFR-1 SETTING BUDGET TERMS FOR KSTP 226 AND KPER 2 TO BUDGET FILE TERMS FROM KSTP 1 AND KPER 2

end timestep


start timestep kper="2" kstp="227" mode="normal"


 FMI SETTING BUDGET TERMS FOR KSTP 227 AND KPER 2 TO BUDGET FILE TERMS FROM KSTP 1 AND KPER 2

 FMI SETTING HEAD FOR KSTP 227 AND KPER 2 TO BINARY FILE HEADS FROM KSTP 1 AND KPER 2

 SFR-1 SETTING BUDGET TERMS FOR KSTP 227 AND KPER 2 TO BUDGET FILE TERMS FROM KSTP 1 AND KPER 2

 CONCENTRATION WILL BE SAVED ON UNIT 1024 AT END OF TIME STEP  227, STRESS PERIOD    2

end timestep


start timestep kper="2" kstp="228" mode="normal"


 FMI SETTING BUDGET TERMS FOR KSTP 228 AND KPER 2 TO BUDGET FILE TERMS FROM KSTP 1 AND KPER 2

 FMI SETTING HEAD FOR KSTP 228 AND KPER 2 TO BINARY FILE HEADS FROM KSTP 1 AND KPER 2

 SFR-1 SETTING BUDGET TERMS FOR KSTP 228 AND KPER 2 TO BUDGET FILE TERMS FROM KSTP 1 AND KPER 2

end timestep


start timestep kper="2" kstp="229" mode="normal"


 FMI SETTING BUDGET TERMS FOR KSTP 229 AND KPER 2 TO BUDGET FILE TERMS FROM KSTP 1 AND KPER 2

 FMI SETTING HEAD FOR KSTP 229 AND KPER 2 TO BINARY FILE HEADS FROM KSTP 1 AND KPER 2

 SFR-1 SETTING BUDGET TERMS FOR KSTP 229 AND KPER 2 TO BUDGET FILE TERMS FROM KSTP 1 AND KPER 2

end timestep


start timestep kper="2" kstp="230" mode="normal"


 FMI SETTING BUDGET TERMS FOR KSTP 230 AND KPER 2 TO BUDGET FILE TERMS FROM KSTP 1 AND KPER 2

 FMI SETTING HEAD FOR KSTP 230 AND KPER 2 TO BINARY FILE HEADS FROM KSTP 1 AND KPER 2

 SFR-1 SETTING BUDGET TERMS FOR KSTP 230 AND KPER 2 TO BUDGET FILE TERMS FROM KSTP 1 AND KPER 2

 CONCENTRATION WILL BE SAVED ON UNIT 1024 AT END OF TIME STEP  230, STRESS PERIOD    2

end timestep


start timestep kper="2" kstp="231" mode="normal"


 FMI SETTING BUDGET TERMS FOR KSTP 231 AND KPER 2 TO BUDGET FILE TERMS FROM KSTP 1 AND KPER 2

 FMI SETTING HEAD FOR KSTP 231 AND KPER 2 TO BINARY FILE HEADS FROM KSTP 1 AND KPER 2

 SFR-1 SETTING BUDGET TERMS FOR KSTP 231 AND KPER 2 TO BUDGET FILE TERMS FROM KSTP 1 AND KPER 2

end timestep


start timestep kper="2" kstp="232" mode="normal"


 FMI SETTING BUDGET TERMS FOR KSTP 232 AND KPER 2 TO BUDGET FILE TERMS FROM KSTP 1 AND KPER 2

 FMI SETTING HEAD FOR KSTP 232 AND KPER 2 TO BINARY FILE HEADS FROM KSTP 1 AND KPER 2

 SFR-1 SETTING BUDGET TERMS FOR KSTP 232 AND KPER 2 TO BUDGET FILE TERMS FROM KSTP 1 AND KPER 2

end timestep


start timestep kper="2" kstp="233" mode="normal"


 FMI SETTING BUDGET TERMS FOR KSTP 233 AND KPER 2 TO BUDGET FILE TERMS FROM KSTP 1 AND KPER 2

 FMI SETTING HEAD FOR KSTP 233 AND KPER 2 TO BINARY FILE HEADS FROM KSTP 1 AND KPER 2

 SFR-1 SETTING BUDGET TERMS FOR KSTP 233 AND KPER 2 TO BUDGET FILE TERMS FROM KSTP 1 AND KPER 2

end timestep


start timestep kper="2" kstp="234" mode="normal"


 FMI SETTING BUDGET TERMS FOR KSTP 234 AND KPER 2 TO BUDGET FILE TERMS FROM KSTP 1 AND KPER 2

 FMI SETTING HEAD FOR KSTP 234 AND KPER 2 TO BINARY FILE HEADS FROM KSTP 1 AND KPER 2

 SFR-1 SETTING BUDGET TERMS FOR KSTP 234 AND KPER 2 TO BUDGET FILE TERMS FROM KSTP 1 AND KPER 2

end timestep


start timestep kper="2" kstp="235" mode="normal"


 FMI SETTING BUDGET TERMS FOR KSTP 235 AND KPER 2 TO BUDGET FILE TERMS FROM KSTP 1 AND KPER 2

 FMI SETTING HEAD FOR KSTP 235 AND KPER 2 TO BINARY FILE HEADS FROM KSTP 1 AND KPER 2

 SFR-1 SETTING BUDGET TERMS FOR KSTP 235 AND KPER 2 TO BUDGET FILE TERMS FROM KSTP 1 AND KPER 2

end timestep


start timestep kper="2" kstp="236" mode="normal"


 FMI SETTING BUDGET TERMS FOR KSTP 236 AND KPER 2 TO BUDGET FILE TERMS FROM KSTP 1 AND KPER 2

 FMI SETTING HEAD FOR KSTP 236 AND KPER 2 TO BINARY FILE HEADS FROM KSTP 1 AND KPER 2

 SFR-1 SETTING BUDGET TERMS FOR KSTP 236 AND KPER 2 TO BUDGET FILE TERMS FROM KSTP 1 AND KPER 2

end timestep


start timestep kper="2" kstp="237" mode="normal"


 FMI SETTING BUDGET TERMS FOR KSTP 237 AND KPER 2 TO BUDGET FILE TERMS FROM KSTP 1 AND KPER 2

 FMI SETTING HEAD FOR KSTP 237 AND KPER 2 TO BINARY FILE HEADS FROM KSTP 1 AND KPER 2

 SFR-1 SETTING BUDGET TERMS FOR KSTP 237 AND KPER 2 TO BUDGET FILE TERMS FROM KSTP 1 AND KPER 2

end timestep


start timestep kper="2" kstp="238" mode="normal"


 FMI SETTING BUDGET TERMS FOR KSTP 238 AND KPER 2 TO BUDGET FILE TERMS FROM KSTP 1 AND KPER 2

 FMI SETTING HEAD FOR KSTP 238 AND KPER 2 TO BINARY FILE HEADS FROM KSTP 1 AND KPER 2

 SFR-1 SETTING BUDGET TERMS FOR KSTP 238 AND KPER 2 TO BUDGET FILE TERMS FROM KSTP 1 AND KPER 2

end timestep


start timestep kper="2" kstp="239" mode="normal"


 FMI SETTING BUDGET TERMS FOR KSTP 239 AND KPER 2 TO BUDGET FILE TERMS FROM KSTP 1 AND KPER 2

 FMI SETTING HEAD FOR KSTP 239 AND KPER 2 TO BINARY FILE HEADS FROM KSTP 1 AND KPER 2

 SFR-1 SETTING BUDGET TERMS FOR KSTP 239 AND KPER 2 TO BUDGET FILE TERMS FROM KSTP 1 AND KPER 2

end timestep


start timestep kper="2" kstp="240" mode="normal"


 FMI SETTING BUDGET TERMS FOR KSTP 240 AND KPER 2 TO BUDGET FILE TERMS FROM KSTP 1 AND KPER 2

 FMI SETTING HEAD FOR KSTP 240 AND KPER 2 TO BINARY FILE HEADS FROM KSTP 1 AND KPER 2

 SFR-1 SETTING BUDGET TERMS FOR KSTP 240 AND KPER 2 TO BUDGET FILE TERMS FROM KSTP 1 AND KPER 2

 CONCENTRATION WILL BE SAVED ON UNIT 1024 AT END OF TIME STEP  240, STRESS PERIOD    2

end timestep


start timestep kper="2" kstp="241" mode="normal"


 FMI SETTING BUDGET TERMS FOR KSTP 241 AND KPER 2 TO BUDGET FILE TERMS FROM KSTP 1 AND KPER 2

 FMI SETTING HEAD FOR KSTP 241 AND KPER 2 TO BINARY FILE HEADS FROM KSTP 1 AND KPER 2

 SFR-1 SETTING BUDGET TERMS FOR KSTP 241 AND KPER 2 TO BUDGET FILE TERMS FROM KSTP 1 AND KPER 2

end timestep


start timestep kper="2" kstp="242" mode="normal"


 FMI SETTING BUDGET TERMS FOR KSTP 242 AND KPER 2 TO BUDGET FILE TERMS FROM KSTP 1 AND KPER 2

 FMI SETTING HEAD FOR KSTP 242 AND KPER 2 TO BINARY FILE HEADS FROM KSTP 1 AND KPER 2

 SFR-1 SETTING BUDGET TERMS FOR KSTP 242 AND KPER 2 TO BUDGET FILE TERMS FROM KSTP 1 AND KPER 2

end timestep


start timestep kper="2" kstp="243" mode="normal"


 FMI SETTING BUDGET TERMS FOR KSTP 243 AND KPER 2 TO BUDGET FILE TERMS FROM KSTP 1 AND KPER 2

 FMI SETTING HEAD FOR KSTP 243 AND KPER 2 TO BINARY FILE HEADS FROM KSTP 1 AND KPER 2

 SFR-1 SETTING BUDGET TERMS FOR KSTP 243 AND KPER 2 TO BUDGET FILE TERMS FROM KSTP 1 AND KPER 2

end timestep


start timestep kper="2" kstp="244" mode="normal"


 FMI SETTING BUDGET TERMS FOR KSTP 244 AND KPER 2 TO BUDGET FILE TERMS FROM KSTP 1 AND KPER 2

 FMI SETTING HEAD FOR KSTP 244 AND KPER 2 TO BINARY FILE HEADS FROM KSTP 1 AND KPER 2

 SFR-1 SETTING BUDGET TERMS FOR KSTP 244 AND KPER 2 TO BUDGET FILE TERMS FROM KSTP 1 AND KPER 2

end timestep


start timestep kper="2" kstp="245" mode="normal"


 FMI SETTING BUDGET TERMS FOR KSTP 245 AND KPER 2 TO BUDGET FILE TERMS FROM KSTP 1 AND KPER 2

 FMI SETTING HEAD FOR KSTP 245 AND KPER 2 TO BINARY FILE HEADS FROM KSTP 1 AND KPER 2

 SFR-1 SETTING BUDGET TERMS FOR KSTP 245 AND KPER 2 TO BUDGET FILE TERMS FROM KSTP 1 AND KPER 2

end timestep


start timestep kper="2" kstp="246" mode="normal"


 FMI SETTING BUDGET TERMS FOR KSTP 246 AND KPER 2 TO BUDGET FILE TERMS FROM KSTP 1 AND KPER 2

 FMI SETTING HEAD FOR KSTP 246 AND KPER 2 TO BINARY FILE HEADS FROM KSTP 1 AND KPER 2

 SFR-1 SETTING BUDGET TERMS FOR KSTP 246 AND KPER 2 TO BUDGET FILE TERMS FROM KSTP 1 AND KPER 2

end timestep


start timestep kper="2" kstp="247" mode="normal"


 FMI SETTING BUDGET TERMS FOR KSTP 247 AND KPER 2 TO BUDGET FILE TERMS FROM KSTP 1 AND KPER 2

 FMI SETTING HEAD FOR KSTP 247 AND KPER 2 TO BINARY FILE HEADS FROM KSTP 1 AND KPER 2

 SFR-1 SETTING BUDGET TERMS FOR KSTP 247 AND KPER 2 TO BUDGET FILE TERMS FROM KSTP 1 AND KPER 2

end timestep


start timestep kper="2" kstp="248" mode="normal"


 FMI SETTING BUDGET TERMS FOR KSTP 248 AND KPER 2 TO BUDGET FILE TERMS FROM KSTP 1 AND KPER 2

 FMI SETTING HEAD FOR KSTP 248 AND KPER 2 TO BINARY FILE HEADS FROM KSTP 1 AND KPER 2

 SFR-1 SETTING BUDGET TERMS FOR KSTP 248 AND KPER 2 TO BUDGET FILE TERMS FROM KSTP 1 AND KPER 2

end timestep


start timestep kper="2" kstp="249" mode="normal"


 FMI SETTING BUDGET TERMS FOR KSTP 249 AND KPER 2 TO BUDGET FILE TERMS FROM KSTP 1 AND KPER 2

 FMI SETTING HEAD FOR KSTP 249 AND KPER 2 TO BINARY FILE HEADS FROM KSTP 1 AND KPER 2

 SFR-1 SETTING BUDGET TERMS FOR KSTP 249 AND KPER 2 TO BUDGET FILE TERMS FROM KSTP 1 AND KPER 2

end timestep


start timestep kper="2" kstp="250" mode="normal"


 FMI SETTING BUDGET TERMS FOR KSTP 250 AND KPER 2 TO BUDGET FILE TERMS FROM KSTP 1 AND KPER 2

 FMI SETTING HEAD FOR KSTP 250 AND KPER 2 TO BINARY FILE HEADS FROM KSTP 1 AND KPER 2

 SFR-1 SETTING BUDGET TERMS FOR KSTP 250 AND KPER 2 TO BUDGET FILE TERMS FROM KSTP 1 AND KPER 2

 CONCENTRATION WILL BE SAVED ON UNIT 1024 AT END OF TIME STEP  250, STRESS PERIOD    2

end timestep


start timestep kper="2" kstp="251" mode="normal"


 FMI SETTING BUDGET TERMS FOR KSTP 251 AND KPER 2 TO BUDGET FILE TERMS FROM KSTP 1 AND KPER 2

 FMI SETTING HEAD FOR KSTP 251 AND KPER 2 TO BINARY FILE HEADS FROM KSTP 1 AND KPER 2

 SFR-1 SETTING BUDGET TERMS FOR KSTP 251 AND KPER 2 TO BUDGET FILE TERMS FROM KSTP 1 AND KPER 2

end timestep


start timestep kper="2" kstp="252" mode="normal"


 FMI SETTING BUDGET TERMS FOR KSTP 252 AND KPER 2 TO BUDGET FILE TERMS FROM KSTP 1 AND KPER 2

 FMI SETTING HEAD FOR KSTP 252 AND KPER 2 TO BINARY FILE HEADS FROM KSTP 1 AND KPER 2

 SFR-1 SETTING BUDGET TERMS FOR KSTP 252 AND KPER 2 TO BUDGET FILE TERMS FROM KSTP 1 AND KPER 2

end timestep


start timestep kper="2" kstp="253" mode="normal"


 FMI SETTING BUDGET TERMS FOR KSTP 253 AND KPER 2 TO BUDGET FILE TERMS FROM KSTP 1 AND KPER 2

 FMI SETTING HEAD FOR KSTP 253 AND KPER 2 TO BINARY FILE HEADS FROM KSTP 1 AND KPER 2

 SFR-1 SETTING BUDGET TERMS FOR KSTP 253 AND KPER 2 TO BUDGET FILE TERMS FROM KSTP 1 AND KPER 2

end timestep


start timestep kper="2" kstp="254" mode="normal"


 FMI SETTING BUDGET TERMS FOR KSTP 254 AND KPER 2 TO BUDGET FILE TERMS FROM KSTP 1 AND KPER 2

 FMI SETTING HEAD FOR KSTP 254 AND KPER 2 TO BINARY FILE HEADS FROM KSTP 1 AND KPER 2

 SFR-1 SETTING BUDGET TERMS FOR KSTP 254 AND KPER 2 TO BUDGET FILE TERMS FROM KSTP 1 AND KPER 2

end timestep


start timestep kper="2" kstp="255" mode="normal"


 FMI SETTING BUDGET TERMS FOR KSTP 255 AND KPER 2 TO BUDGET FILE TERMS FROM KSTP 1 AND KPER 2

 FMI SETTING HEAD FOR KSTP 255 AND KPER 2 TO BINARY FILE HEADS FROM KSTP 1 AND KPER 2

 SFR-1 SETTING BUDGET TERMS FOR KSTP 255 AND KPER 2 TO BUDGET FILE TERMS FROM KSTP 1 AND KPER 2

end timestep


start timestep kper="2" kstp="256" mode="normal"


 FMI SETTING BUDGET TERMS FOR KSTP 256 AND KPER 2 TO BUDGET FILE TERMS FROM KSTP 1 AND KPER 2

 FMI SETTING HEAD FOR KSTP 256 AND KPER 2 TO BINARY FILE HEADS FROM KSTP 1 AND KPER 2

 SFR-1 SETTING BUDGET TERMS FOR KSTP 256 AND KPER 2 TO BUDGET FILE TERMS FROM KSTP 1 AND KPER 2

end timestep


start timestep kper="2" kstp="257" mode="normal"


 FMI SETTING BUDGET TERMS FOR KSTP 257 AND KPER 2 TO BUDGET FILE TERMS FROM KSTP 1 AND KPER 2

 FMI SETTING HEAD FOR KSTP 257 AND KPER 2 TO BINARY FILE HEADS FROM KSTP 1 AND KPER 2

 SFR-1 SETTING BUDGET TERMS FOR KSTP 257 AND KPER 2 TO BUDGET FILE TERMS FROM KSTP 1 AND KPER 2

end timestep


start timestep kper="2" kstp="258" mode="normal"


 FMI SETTING BUDGET TERMS FOR KSTP 258 AND KPER 2 TO BUDGET FILE TERMS FROM KSTP 1 AND KPER 2

 FMI SETTING HEAD FOR KSTP 258 AND KPER 2 TO BINARY FILE HEADS FROM KSTP 1 AND KPER 2

 SFR-1 SETTING BUDGET TERMS FOR KSTP 258 AND KPER 2 TO BUDGET FILE TERMS FROM KSTP 1 AND KPER 2

end timestep


start timestep kper="2" kstp="259" mode="normal"


 FMI SETTING BUDGET TERMS FOR KSTP 259 AND KPER 2 TO BUDGET FILE TERMS FROM KSTP 1 AND KPER 2

 FMI SETTING HEAD FOR KSTP 259 AND KPER 2 TO BINARY FILE HEADS FROM KSTP 1 AND KPER 2

 SFR-1 SETTING BUDGET TERMS FOR KSTP 259 AND KPER 2 TO BUDGET FILE TERMS FROM KSTP 1 AND KPER 2

end timestep


start timestep kper="2" kstp="260" mode="normal"


 FMI SETTING BUDGET TERMS FOR KSTP 260 AND KPER 2 TO BUDGET FILE TERMS FROM KSTP 1 AND KPER 2

 FMI SETTING HEAD FOR KSTP 260 AND KPER 2 TO BINARY FILE HEADS FROM KSTP 1 AND KPER 2

 SFR-1 SETTING BUDGET TERMS FOR KSTP 260 AND KPER 2 TO BUDGET FILE TERMS FROM KSTP 1 AND KPER 2

 CONCENTRATION WILL BE SAVED ON UNIT 1024 AT END OF TIME STEP  260, STRESS PERIOD    2

end timestep


start timestep kper="2" kstp="261" mode="normal"


 FMI SETTING BUDGET TERMS FOR KSTP 261 AND KPER 2 TO BUDGET FILE TERMS FROM KSTP 1 AND KPER 2

 FMI SETTING HEAD FOR KSTP 261 AND KPER 2 TO BINARY FILE HEADS FROM KSTP 1 AND KPER 2

 SFR-1 SETTING BUDGET TERMS FOR KSTP 261 AND KPER 2 TO BUDGET FILE TERMS FROM KSTP 1 AND KPER 2

end timestep


start timestep kper="2" kstp="262" mode="normal"


 FMI SETTING BUDGET TERMS FOR KSTP 262 AND KPER 2 TO BUDGET FILE TERMS FROM KSTP 1 AND KPER 2

 FMI SETTING HEAD FOR KSTP 262 AND KPER 2 TO BINARY FILE HEADS FROM KSTP 1 AND KPER 2

 SFR-1 SETTING BUDGET TERMS FOR KSTP 262 AND KPER 2 TO BUDGET FILE TERMS FROM KSTP 1 AND KPER 2

end timestep


start timestep kper="2" kstp="263" mode="normal"


 FMI SETTING BUDGET TERMS FOR KSTP 263 AND KPER 2 TO BUDGET FILE TERMS FROM KSTP 1 AND KPER 2

 FMI SETTING HEAD FOR KSTP 263 AND KPER 2 TO BINARY FILE HEADS FROM KSTP 1 AND KPER 2

 SFR-1 SETTING BUDGET TERMS FOR KSTP 263 AND KPER 2 TO BUDGET FILE TERMS FROM KSTP 1 AND KPER 2

end timestep


start timestep kper="2" kstp="264" mode="normal"


 FMI SETTING BUDGET TERMS FOR KSTP 264 AND KPER 2 TO BUDGET FILE TERMS FROM KSTP 1 AND KPER 2

 FMI SETTING HEAD FOR KSTP 264 AND KPER 2 TO BINARY FILE HEADS FROM KSTP 1 AND KPER 2

 SFR-1 SETTING BUDGET TERMS FOR KSTP 264 AND KPER 2 TO BUDGET FILE TERMS FROM KSTP 1 AND KPER 2

end timestep


start timestep kper="2" kstp="265" mode="normal"


 FMI SETTING BUDGET TERMS FOR KSTP 265 AND KPER 2 TO BUDGET FILE TERMS FROM KSTP 1 AND KPER 2

 FMI SETTING HEAD FOR KSTP 265 AND KPER 2 TO BINARY FILE HEADS FROM KSTP 1 AND KPER 2

 SFR-1 SETTING BUDGET TERMS FOR KSTP 265 AND KPER 2 TO BUDGET FILE TERMS FROM KSTP 1 AND KPER 2

end timestep


start timestep kper="2" kstp="266" mode="normal"


 FMI SETTING BUDGET TERMS FOR KSTP 266 AND KPER 2 TO BUDGET FILE TERMS FROM KSTP 1 AND KPER 2

 FMI SETTING HEAD FOR KSTP 266 AND KPER 2 TO BINARY FILE HEADS FROM KSTP 1 AND KPER 2

 SFR-1 SETTING BUDGET TERMS FOR KSTP 266 AND KPER 2 TO BUDGET FILE TERMS FROM KSTP 1 AND KPER 2

end timestep


start timestep kper="2" kstp="267" mode="normal"


 FMI SETTING BUDGET TERMS FOR KSTP 267 AND KPER 2 TO BUDGET FILE TERMS FROM KSTP 1 AND KPER 2

 FMI SETTING HEAD FOR KSTP 267 AND KPER 2 TO BINARY FILE HEADS FROM KSTP 1 AND KPER 2

 SFR-1 SETTING BUDGET TERMS FOR KSTP 267 AND KPER 2 TO BUDGET FILE TERMS FROM KSTP 1 AND KPER 2

end timestep


start timestep kper="2" kstp="268" mode="normal"


 FMI SETTING BUDGET TERMS FOR KSTP 268 AND KPER 2 TO BUDGET FILE TERMS FROM KSTP 1 AND KPER 2

 FMI SETTING HEAD FOR KSTP 268 AND KPER 2 TO BINARY FILE HEADS FROM KSTP 1 AND KPER 2

 SFR-1 SETTING BUDGET TERMS FOR KSTP 268 AND KPER 2 TO BUDGET FILE TERMS FROM KSTP 1 AND KPER 2

end timestep


start timestep kper="2" kstp="269" mode="normal"


 FMI SETTING BUDGET TERMS FOR KSTP 269 AND KPER 2 TO BUDGET FILE TERMS FROM KSTP 1 AND KPER 2

 FMI SETTING HEAD FOR KSTP 269 AND KPER 2 TO BINARY FILE HEADS FROM KSTP 1 AND KPER 2

 SFR-1 SETTING BUDGET TERMS FOR KSTP 269 AND KPER 2 TO BUDGET FILE TERMS FROM KSTP 1 AND KPER 2

end timestep


start timestep kper="2" kstp="270" mode="normal"


 FMI SETTING BUDGET TERMS FOR KSTP 270 AND KPER 2 TO BUDGET FILE TERMS FROM KSTP 1 AND KPER 2

 FMI SETTING HEAD FOR KSTP 270 AND KPER 2 TO BINARY FILE HEADS FROM KSTP 1 AND KPER 2

 SFR-1 SETTING BUDGET TERMS FOR KSTP 270 AND KPER 2 TO BUDGET FILE TERMS FROM KSTP 1 AND KPER 2

 CONCENTRATION WILL BE SAVED ON UNIT 1024 AT END OF TIME STEP  270, STRESS PERIOD    2

end timestep


start timestep kper="2" kstp="271" mode="normal"


 FMI SETTING BUDGET TERMS FOR KSTP 271 AND KPER 2 TO BUDGET FILE TERMS FROM KSTP 1 AND KPER 2

 FMI SETTING HEAD FOR KSTP 271 AND KPER 2 TO BINARY FILE HEADS FROM KSTP 1 AND KPER 2

 SFR-1 SETTING BUDGET TERMS FOR KSTP 271 AND KPER 2 TO BUDGET FILE TERMS FROM KSTP 1 AND KPER 2

end timestep


start timestep kper="2" kstp="272" mode="normal"


 FMI SETTING BUDGET TERMS FOR KSTP 272 AND KPER 2 TO BUDGET FILE TERMS FROM KSTP 1 AND KPER 2

 FMI SETTING HEAD FOR KSTP 272 AND KPER 2 TO BINARY FILE HEADS FROM KSTP 1 AND KPER 2

 SFR-1 SETTING BUDGET TERMS FOR KSTP 272 AND KPER 2 TO BUDGET FILE TERMS FROM KSTP 1 AND KPER 2

end timestep


start timestep kper="2" kstp="273" mode="normal"


 FMI SETTING BUDGET TERMS FOR KSTP 273 AND KPER 2 TO BUDGET FILE TERMS FROM KSTP 1 AND KPER 2

 FMI SETTING HEAD FOR KSTP 273 AND KPER 2 TO BINARY FILE HEADS FROM KSTP 1 AND KPER 2

 SFR-1 SETTING BUDGET TERMS FOR KSTP 273 AND KPER 2 TO BUDGET FILE TERMS FROM KSTP 1 AND KPER 2

end timestep


start timestep kper="2" kstp="274" mode="normal"


 FMI SETTING BUDGET TERMS FOR KSTP 274 AND KPER 2 TO BUDGET FILE TERMS FROM KSTP 1 AND KPER 2

 FMI SETTING HEAD FOR KSTP 274 AND KPER 2 TO BINARY FILE HEADS FROM KSTP 1 AND KPER 2

 SFR-1 SETTING BUDGET TERMS FOR KSTP 274 AND KPER 2 TO BUDGET FILE TERMS FROM KSTP 1 AND KPER 2

end timestep


start timestep kper="2" kstp="275" mode="normal"


 FMI SETTING BUDGET TERMS FOR KSTP 275 AND KPER 2 TO BUDGET FILE TERMS FROM KSTP 1 AND KPER 2

 FMI SETTING HEAD FOR KSTP 275 AND KPER 2 TO BINARY FILE HEADS FROM KSTP 1 AND KPER 2

 SFR-1 SETTING BUDGET TERMS FOR KSTP 275 AND KPER 2 TO BUDGET FILE TERMS FROM KSTP 1 AND KPER 2

end timestep


start timestep kper="2" kstp="276" mode="normal"


 FMI SETTING BUDGET TERMS FOR KSTP 276 AND KPER 2 TO BUDGET FILE TERMS FROM KSTP 1 AND KPER 2

 FMI SETTING HEAD FOR KSTP 276 AND KPER 2 TO BINARY FILE HEADS FROM KSTP 1 AND KPER 2

 SFR-1 SETTING BUDGET TERMS FOR KSTP 276 AND KPER 2 TO BUDGET FILE TERMS FROM KSTP 1 AND KPER 2

end timestep


start timestep kper="2" kstp="277" mode="normal"


 FMI SETTING BUDGET TERMS FOR KSTP 277 AND KPER 2 TO BUDGET FILE TERMS FROM KSTP 1 AND KPER 2

 FMI SETTING HEAD FOR KSTP 277 AND KPER 2 TO BINARY FILE HEADS FROM KSTP 1 AND KPER 2

 SFR-1 SETTING BUDGET TERMS FOR KSTP 277 AND KPER 2 TO BUDGET FILE TERMS FROM KSTP 1 AND KPER 2

end timestep


start timestep kper="2" kstp="278" mode="normal"


 FMI SETTING BUDGET TERMS FOR KSTP 278 AND KPER 2 TO BUDGET FILE TERMS FROM KSTP 1 AND KPER 2

 FMI SETTING HEAD FOR KSTP 278 AND KPER 2 TO BINARY FILE HEADS FROM KSTP 1 AND KPER 2

 SFR-1 SETTING BUDGET TERMS FOR KSTP 278 AND KPER 2 TO BUDGET FILE TERMS FROM KSTP 1 AND KPER 2

end timestep


start timestep kper="2" kstp="279" mode="normal"


 FMI SETTING BUDGET TERMS FOR KSTP 279 AND KPER 2 TO BUDGET FILE TERMS FROM KSTP 1 AND KPER 2

 FMI SETTING HEAD FOR KSTP 279 AND KPER 2 TO BINARY FILE HEADS FROM KSTP 1 AND KPER 2

 SFR-1 SETTING BUDGET TERMS FOR KSTP 279 AND KPER 2 TO BUDGET FILE TERMS FROM KSTP 1 AND KPER 2

end timestep


start timestep kper="2" kstp="280" mode="normal"


 FMI SETTING BUDGET TERMS FOR KSTP 280 AND KPER 2 TO BUDGET FILE TERMS FROM KSTP 1 AND KPER 2

 FMI SETTING HEAD FOR KSTP 280 AND KPER 2 TO BINARY FILE HEADS FROM KSTP 1 AND KPER 2

 SFR-1 SETTING BUDGET TERMS FOR KSTP 280 AND KPER 2 TO BUDGET FILE TERMS FROM KSTP 1 AND KPER 2

 CONCENTRATION WILL BE SAVED ON UNIT 1024 AT END OF TIME STEP  280, STRESS PERIOD    2

end timestep


start timestep kper="2" kstp="281" mode="normal"


 FMI SETTING BUDGET TERMS FOR KSTP 281 AND KPER 2 TO BUDGET FILE TERMS FROM KSTP 1 AND KPER 2

 FMI SETTING HEAD FOR KSTP 281 AND KPER 2 TO BINARY FILE HEADS FROM KSTP 1 AND KPER 2

 SFR-1 SETTING BUDGET TERMS FOR KSTP 281 AND KPER 2 TO BUDGET FILE TERMS FROM KSTP 1 AND KPER 2

end timestep


start timestep kper="2" kstp="282" mode="normal"


 FMI SETTING BUDGET TERMS FOR KSTP 282 AND KPER 2 TO BUDGET FILE TERMS FROM KSTP 1 AND KPER 2

 FMI SETTING HEAD FOR KSTP 282 AND KPER 2 TO BINARY FILE HEADS FROM KSTP 1 AND KPER 2

 SFR-1 SETTING BUDGET TERMS FOR KSTP 282 AND KPER 2 TO BUDGET FILE TERMS FROM KSTP 1 AND KPER 2

end timestep


start timestep kper="2" kstp="283" mode="normal"


 FMI SETTING BUDGET TERMS FOR KSTP 283 AND KPER 2 TO BUDGET FILE TERMS FROM KSTP 1 AND KPER 2

 FMI SETTING HEAD FOR KSTP 283 AND KPER 2 TO BINARY FILE HEADS FROM KSTP 1 AND KPER 2

 SFR-1 SETTING BUDGET TERMS FOR KSTP 283 AND KPER 2 TO BUDGET FILE TERMS FROM KSTP 1 AND KPER 2

end timestep


start timestep kper="2" kstp="284" mode="normal"


 FMI SETTING BUDGET TERMS FOR KSTP 284 AND KPER 2 TO BUDGET FILE TERMS FROM KSTP 1 AND KPER 2

 FMI SETTING HEAD FOR KSTP 284 AND KPER 2 TO BINARY FILE HEADS FROM KSTP 1 AND KPER 2

 SFR-1 SETTING BUDGET TERMS FOR KSTP 284 AND KPER 2 TO BUDGET FILE TERMS FROM KSTP 1 AND KPER 2

end timestep


start timestep kper="2" kstp="285" mode="normal"


 FMI SETTING BUDGET TERMS FOR KSTP 285 AND KPER 2 TO BUDGET FILE TERMS FROM KSTP 1 AND KPER 2

 FMI SETTING HEAD FOR KSTP 285 AND KPER 2 TO BINARY FILE HEADS FROM KSTP 1 AND KPER 2

 SFR-1 SETTING BUDGET TERMS FOR KSTP 285 AND KPER 2 TO BUDGET FILE TERMS FROM KSTP 1 AND KPER 2

end timestep


start timestep kper="2" kstp="286" mode="normal"


 FMI SETTING BUDGET TERMS FOR KSTP 286 AND KPER 2 TO BUDGET FILE TERMS FROM KSTP 1 AND KPER 2

 FMI SETTING HEAD FOR KSTP 286 AND KPER 2 TO BINARY FILE HEADS FROM KSTP 1 AND KPER 2

 SFR-1 SETTING BUDGET TERMS FOR KSTP 286 AND KPER 2 TO BUDGET FILE TERMS FROM KSTP 1 AND KPER 2

end timestep


start timestep kper="2" kstp="287" mode="normal"


 FMI SETTING BUDGET TERMS FOR KSTP 287 AND KPER 2 TO BUDGET FILE TERMS FROM KSTP 1 AND KPER 2

 FMI SETTING HEAD FOR KSTP 287 AND KPER 2 TO BINARY FILE HEADS FROM KSTP 1 AND KPER 2

 SFR-1 SETTING BUDGET TERMS FOR KSTP 287 AND KPER 2 TO BUDGET FILE TERMS FROM KSTP 1 AND KPER 2

end timestep


start timestep kper="2" kstp="288" mode="normal"


 FMI SETTING BUDGET TERMS FOR KSTP 288 AND KPER 2 TO BUDGET FILE TERMS FROM KSTP 1 AND KPER 2

 FMI SETTING HEAD FOR KSTP 288 AND KPER 2 TO BINARY FILE HEADS FROM KSTP 1 AND KPER 2

 SFR-1 SETTING BUDGET TERMS FOR KSTP 288 AND KPER 2 TO BUDGET FILE TERMS FROM KSTP 1 AND KPER 2

end timestep


start timestep kper="2" kstp="289" mode="normal"


 FMI SETTING BUDGET TERMS FOR KSTP 289 AND KPER 2 TO BUDGET FILE TERMS FROM KSTP 1 AND KPER 2

 FMI SETTING HEAD FOR KSTP 289 AND KPER 2 TO BINARY FILE HEADS FROM KSTP 1 AND KPER 2

 SFR-1 SETTING BUDGET TERMS FOR KSTP 289 AND KPER 2 TO BUDGET FILE TERMS FROM KSTP 1 AND KPER 2

end timestep


start timestep kper="2" kstp="290" mode="normal"


 FMI SETTING BUDGET TERMS FOR KSTP 290 AND KPER 2 TO BUDGET FILE TERMS FROM KSTP 1 AND KPER 2

 FMI SETTING HEAD FOR KSTP 290 AND KPER 2 TO BINARY FILE HEADS FROM KSTP 1 AND KPER 2

 SFR-1 SETTING BUDGET TERMS FOR KSTP 290 AND KPER 2 TO BUDGET FILE TERMS FROM KSTP 1 AND KPER 2

 CONCENTRATION WILL BE SAVED ON UNIT 1024 AT END OF TIME STEP  290, STRESS PERIOD    2

end timestep


start timestep kper="2" kstp="291" mode="normal"


 FMI SETTING BUDGET TERMS FOR KSTP 291 AND KPER 2 TO BUDGET FILE TERMS FROM KSTP 1 AND KPER 2

 FMI SETTING HEAD FOR KSTP 291 AND KPER 2 TO BINARY FILE HEADS FROM KSTP 1 AND KPER 2

 SFR-1 SETTING BUDGET TERMS FOR KSTP 291 AND KPER 2 TO BUDGET FILE TERMS FROM KSTP 1 AND KPER 2

end timestep


start timestep kper="2" kstp="292" mode="normal"


 FMI SETTING BUDGET TERMS FOR KSTP 292 AND KPER 2 TO BUDGET FILE TERMS FROM KSTP 1 AND KPER 2

 FMI SETTING HEAD FOR KSTP 292 AND KPER 2 TO BINARY FILE HEADS FROM KSTP 1 AND KPER 2

 SFR-1 SETTING BUDGET TERMS FOR KSTP 292 AND KPER 2 TO BUDGET FILE TERMS FROM KSTP 1 AND KPER 2

end timestep


start timestep kper="2" kstp="293" mode="normal"


 FMI SETTING BUDGET TERMS FOR KSTP 293 AND KPER 2 TO BUDGET FILE TERMS FROM KSTP 1 AND KPER 2

 FMI SETTING HEAD FOR KSTP 293 AND KPER 2 TO BINARY FILE HEADS FROM KSTP 1 AND KPER 2

 SFR-1 SETTING BUDGET TERMS FOR KSTP 293 AND KPER 2 TO BUDGET FILE TERMS FROM KSTP 1 AND KPER 2

end timestep


start timestep kper="2" kstp="294" mode="normal"


 FMI SETTING BUDGET TERMS FOR KSTP 294 AND KPER 2 TO BUDGET FILE TERMS FROM KSTP 1 AND KPER 2

 FMI SETTING HEAD FOR KSTP 294 AND KPER 2 TO BINARY FILE HEADS FROM KSTP 1 AND KPER 2

 SFR-1 SETTING BUDGET TERMS FOR KSTP 294 AND KPER 2 TO BUDGET FILE TERMS FROM KSTP 1 AND KPER 2

end timestep


start timestep kper="2" kstp="295" mode="normal"


 FMI SETTING BUDGET TERMS FOR KSTP 295 AND KPER 2 TO BUDGET FILE TERMS FROM KSTP 1 AND KPER 2

 FMI SETTING HEAD FOR KSTP 295 AND KPER 2 TO BINARY FILE HEADS FROM KSTP 1 AND KPER 2

 SFR-1 SETTING BUDGET TERMS FOR KSTP 295 AND KPER 2 TO BUDGET FILE TERMS FROM KSTP 1 AND KPER 2

end timestep


start timestep kper="2" kstp="296" mode="normal"


 FMI SETTING BUDGET TERMS FOR KSTP 296 AND KPER 2 TO BUDGET FILE TERMS FROM KSTP 1 AND KPER 2

 FMI SETTING HEAD FOR KSTP 296 AND KPER 2 TO BINARY FILE HEADS FROM KSTP 1 AND KPER 2

 SFR-1 SETTING BUDGET TERMS FOR KSTP 296 AND KPER 2 TO BUDGET FILE TERMS FROM KSTP 1 AND KPER 2

end timestep


start timestep kper="2" kstp="297" mode="normal"


 FMI SETTING BUDGET TERMS FOR KSTP 297 AND KPER 2 TO BUDGET FILE TERMS FROM KSTP 1 AND KPER 2

 FMI SETTING HEAD FOR KSTP 297 AND KPER 2 TO BINARY FILE HEADS FROM KSTP 1 AND KPER 2

 SFR-1 SETTING BUDGET TERMS FOR KSTP 297 AND KPER 2 TO BUDGET FILE TERMS FROM KSTP 1 AND KPER 2

end timestep


start timestep kper="2" kstp="298" mode="normal"


 FMI SETTING BUDGET TERMS FOR KSTP 298 AND KPER 2 TO BUDGET FILE TERMS FROM KSTP 1 AND KPER 2

 FMI SETTING HEAD FOR KSTP 298 AND KPER 2 TO BINARY FILE HEADS FROM KSTP 1 AND KPER 2

 SFR-1 SETTING BUDGET TERMS FOR KSTP 298 AND KPER 2 TO BUDGET FILE TERMS FROM KSTP 1 AND KPER 2

end timestep


start timestep kper="2" kstp="299" mode="normal"


 FMI SETTING BUDGET TERMS FOR KSTP 299 AND KPER 2 TO BUDGET FILE TERMS FROM KSTP 1 AND KPER 2

 FMI SETTING HEAD FOR KSTP 299 AND KPER 2 TO BINARY FILE HEADS FROM KSTP 1 AND KPER 2

 SFR-1 SETTING BUDGET TERMS FOR KSTP 299 AND KPER 2 TO BUDGET FILE TERMS FROM KSTP 1 AND KPER 2

end timestep


start timestep kper="2" kstp="300" mode="normal"


 FMI SETTING BUDGET TERMS FOR KSTP 300 AND KPER 2 TO BUDGET FILE TERMS FROM KSTP 1 AND KPER 2

 FMI SETTING HEAD FOR KSTP 300 AND KPER 2 TO BINARY FILE HEADS FROM KSTP 1 AND KPER 2

 SFR-1 SETTING BUDGET TERMS FOR KSTP 300 AND KPER 2 TO BUDGET FILE TERMS FROM KSTP 1 AND KPER 2

 CONCENTRATION WILL BE SAVED ON UNIT 1024 AT END OF TIME STEP  300, STRESS PERIOD    2

end timestep


start timestep kper="2" kstp="301" mode="normal"


 FMI SETTING BUDGET TERMS FOR KSTP 301 AND KPER 2 TO BUDGET FILE TERMS FROM KSTP 1 AND KPER 2

 FMI SETTING HEAD FOR KSTP 301 AND KPER 2 TO BINARY FILE HEADS FROM KSTP 1 AND KPER 2

 SFR-1 SETTING BUDGET TERMS FOR KSTP 301 AND KPER 2 TO BUDGET FILE TERMS FROM KSTP 1 AND KPER 2

end timestep


start timestep kper="2" kstp="302" mode="normal"


 FMI SETTING BUDGET TERMS FOR KSTP 302 AND KPER 2 TO BUDGET FILE TERMS FROM KSTP 1 AND KPER 2

 FMI SETTING HEAD FOR KSTP 302 AND KPER 2 TO BINARY FILE HEADS FROM KSTP 1 AND KPER 2

 SFR-1 SETTING BUDGET TERMS FOR KSTP 302 AND KPER 2 TO BUDGET FILE TERMS FROM KSTP 1 AND KPER 2

end timestep


start timestep kper="2" kstp="303" mode="normal"


 FMI SETTING BUDGET TERMS FOR KSTP 303 AND KPER 2 TO BUDGET FILE TERMS FROM KSTP 1 AND KPER 2

 FMI SETTING HEAD FOR KSTP 303 AND KPER 2 TO BINARY FILE HEADS FROM KSTP 1 AND KPER 2

 SFR-1 SETTING BUDGET TERMS FOR KSTP 303 AND KPER 2 TO BUDGET FILE TERMS FROM KSTP 1 AND KPER 2

end timestep


start timestep kper="2" kstp="304" mode="normal"


 FMI SETTING BUDGET TERMS FOR KSTP 304 AND KPER 2 TO BUDGET FILE TERMS FROM KSTP 1 AND KPER 2

 FMI SETTING HEAD FOR KSTP 304 AND KPER 2 TO BINARY FILE HEADS FROM KSTP 1 AND KPER 2

 SFR-1 SETTING BUDGET TERMS FOR KSTP 304 AND KPER 2 TO BUDGET FILE TERMS FROM KSTP 1 AND KPER 2

end timestep


start timestep kper="2" kstp="305" mode="normal"


 FMI SETTING BUDGET TERMS FOR KSTP 305 AND KPER 2 TO BUDGET FILE TERMS FROM KSTP 1 AND KPER 2

 FMI SETTING HEAD FOR KSTP 305 AND KPER 2 TO BINARY FILE HEADS FROM KSTP 1 AND KPER 2

 SFR-1 SETTING BUDGET TERMS FOR KSTP 305 AND KPER 2 TO BUDGET FILE TERMS FROM KSTP 1 AND KPER 2

end timestep


start timestep kper="2" kstp="306" mode="normal"


 FMI SETTING BUDGET TERMS FOR KSTP 306 AND KPER 2 TO BUDGET FILE TERMS FROM KSTP 1 AND KPER 2

 FMI SETTING HEAD FOR KSTP 306 AND KPER 2 TO BINARY FILE HEADS FROM KSTP 1 AND KPER 2

 SFR-1 SETTING BUDGET TERMS FOR KSTP 306 AND KPER 2 TO BUDGET FILE TERMS FROM KSTP 1 AND KPER 2

end timestep


start timestep kper="2" kstp="307" mode="normal"


 FMI SETTING BUDGET TERMS FOR KSTP 307 AND KPER 2 TO BUDGET FILE TERMS FROM KSTP 1 AND KPER 2

 FMI SETTING HEAD FOR KSTP 307 AND KPER 2 TO BINARY FILE HEADS FROM KSTP 1 AND KPER 2

 SFR-1 SETTING BUDGET TERMS FOR KSTP 307 AND KPER 2 TO BUDGET FILE TERMS FROM KSTP 1 AND KPER 2

end timestep


start timestep kper="2" kstp="308" mode="normal"


 FMI SETTING BUDGET TERMS FOR KSTP 308 AND KPER 2 TO BUDGET FILE TERMS FROM KSTP 1 AND KPER 2

 FMI SETTING HEAD FOR KSTP 308 AND KPER 2 TO BINARY FILE HEADS FROM KSTP 1 AND KPER 2

 SFR-1 SETTING BUDGET TERMS FOR KSTP 308 AND KPER 2 TO BUDGET FILE TERMS FROM KSTP 1 AND KPER 2

end timestep


start timestep kper="2" kstp="309" mode="normal"


 FMI SETTING BUDGET TERMS FOR KSTP 309 AND KPER 2 TO BUDGET FILE TERMS FROM KSTP 1 AND KPER 2

 FMI SETTING HEAD FOR KSTP 309 AND KPER 2 TO BINARY FILE HEADS FROM KSTP 1 AND KPER 2

 SFR-1 SETTING BUDGET TERMS FOR KSTP 309 AND KPER 2 TO BUDGET FILE TERMS FROM KSTP 1 AND KPER 2

end timestep


start timestep kper="2" kstp="310" mode="normal"


 FMI SETTING BUDGET TERMS FOR KSTP 310 AND KPER 2 TO BUDGET FILE TERMS FROM KSTP 1 AND KPER 2

 FMI SETTING HEAD FOR KSTP 310 AND KPER 2 TO BINARY FILE HEADS FROM KSTP 1 AND KPER 2

 SFR-1 SETTING BUDGET TERMS FOR KSTP 310 AND KPER 2 TO BUDGET FILE TERMS FROM KSTP 1 AND KPER 2

 CONCENTRATION WILL BE SAVED ON UNIT 1024 AT END OF TIME STEP  310, STRESS PERIOD    2

end timestep


start timestep kper="2" kstp="311" mode="normal"


 FMI SETTING BUDGET TERMS FOR KSTP 311 AND KPER 2 TO BUDGET FILE TERMS FROM KSTP 1 AND KPER 2

 FMI SETTING HEAD FOR KSTP 311 AND KPER 2 TO BINARY FILE HEADS FROM KSTP 1 AND KPER 2

 SFR-1 SETTING BUDGET TERMS FOR KSTP 311 AND KPER 2 TO BUDGET FILE TERMS FROM KSTP 1 AND KPER 2

end timestep


start timestep kper="2" kstp="312" mode="normal"


 FMI SETTING BUDGET TERMS FOR KSTP 312 AND KPER 2 TO BUDGET FILE TERMS FROM KSTP 1 AND KPER 2

 FMI SETTING HEAD FOR KSTP 312 AND KPER 2 TO BINARY FILE HEADS FROM KSTP 1 AND KPER 2

 SFR-1 SETTING BUDGET TERMS FOR KSTP 312 AND KPER 2 TO BUDGET FILE TERMS FROM KSTP 1 AND KPER 2

end timestep


start timestep kper="2" kstp="313" mode="normal"


 FMI SETTING BUDGET TERMS FOR KSTP 313 AND KPER 2 TO BUDGET FILE TERMS FROM KSTP 1 AND KPER 2

 FMI SETTING HEAD FOR KSTP 313 AND KPER 2 TO BINARY FILE HEADS FROM KSTP 1 AND KPER 2

 SFR-1 SETTING BUDGET TERMS FOR KSTP 313 AND KPER 2 TO BUDGET FILE TERMS FROM KSTP 1 AND KPER 2

end timestep


start timestep kper="2" kstp="314" mode="normal"


 FMI SETTING BUDGET TERMS FOR KSTP 314 AND KPER 2 TO BUDGET FILE TERMS FROM KSTP 1 AND KPER 2

 FMI SETTING HEAD FOR KSTP 314 AND KPER 2 TO BINARY FILE HEADS FROM KSTP 1 AND KPER 2

 SFR-1 SETTING BUDGET TERMS FOR KSTP 314 AND KPER 2 TO BUDGET FILE TERMS FROM KSTP 1 AND KPER 2

end timestep


start timestep kper="2" kstp="315" mode="normal"


 FMI SETTING BUDGET TERMS FOR KSTP 315 AND KPER 2 TO BUDGET FILE TERMS FROM KSTP 1 AND KPER 2

 FMI SETTING HEAD FOR KSTP 315 AND KPER 2 TO BINARY FILE HEADS FROM KSTP 1 AND KPER 2

 SFR-1 SETTING BUDGET TERMS FOR KSTP 315 AND KPER 2 TO BUDGET FILE TERMS FROM KSTP 1 AND KPER 2

end timestep


start timestep kper="2" kstp="316" mode="normal"


 FMI SETTING BUDGET TERMS FOR KSTP 316 AND KPER 2 TO BUDGET FILE TERMS FROM KSTP 1 AND KPER 2

 FMI SETTING HEAD FOR KSTP 316 AND KPER 2 TO BINARY FILE HEADS FROM KSTP 1 AND KPER 2

 SFR-1 SETTING BUDGET TERMS FOR KSTP 316 AND KPER 2 TO BUDGET FILE TERMS FROM KSTP 1 AND KPER 2

end timestep


start timestep kper="2" kstp="317" mode="normal"


 FMI SETTING BUDGET TERMS FOR KSTP 317 AND KPER 2 TO BUDGET FILE TERMS FROM KSTP 1 AND KPER 2

 FMI SETTING HEAD FOR KSTP 317 AND KPER 2 TO BINARY FILE HEADS FROM KSTP 1 AND KPER 2

 SFR-1 SETTING BUDGET TERMS FOR KSTP 317 AND KPER 2 TO BUDGET FILE TERMS FROM KSTP 1 AND KPER 2

end timestep


start timestep kper="2" kstp="318" mode="normal"


 FMI SETTING BUDGET TERMS FOR KSTP 318 AND KPER 2 TO BUDGET FILE TERMS FROM KSTP 1 AND KPER 2

 FMI SETTING HEAD FOR KSTP 318 AND KPER 2 TO BINARY FILE HEADS FROM KSTP 1 AND KPER 2

 SFR-1 SETTING BUDGET TERMS FOR KSTP 318 AND KPER 2 TO BUDGET FILE TERMS FROM KSTP 1 AND KPER 2

end timestep


start timestep kper="2" kstp="319" mode="normal"


 FMI SETTING BUDGET TERMS FOR KSTP 319 AND KPER 2 TO BUDGET FILE TERMS FROM KSTP 1 AND KPER 2

 FMI SETTING HEAD FOR KSTP 319 AND KPER 2 TO BINARY FILE HEADS FROM KSTP 1 AND KPER 2

 SFR-1 SETTING BUDGET TERMS FOR KSTP 319 AND KPER 2 TO BUDGET FILE TERMS FROM KSTP 1 AND KPER 2

end timestep


start timestep kper="2" kstp="320" mode="normal"


 FMI SETTING BUDGET TERMS FOR KSTP 320 AND KPER 2 TO BUDGET FILE TERMS FROM KSTP 1 AND KPER 2

 FMI SETTING HEAD FOR KSTP 320 AND KPER 2 TO BINARY FILE HEADS FROM KSTP 1 AND KPER 2

 SFR-1 SETTING BUDGET TERMS FOR KSTP 320 AND KPER 2 TO BUDGET FILE TERMS FROM KSTP 1 AND KPER 2

 CONCENTRATION WILL BE SAVED ON UNIT 1024 AT END OF TIME STEP  320, STRESS PERIOD    2

end timestep


start timestep kper="2" kstp="321" mode="normal"


 FMI SETTING BUDGET TERMS FOR KSTP 321 AND KPER 2 TO BUDGET FILE TERMS FROM KSTP 1 AND KPER 2

 FMI SETTING HEAD FOR KSTP 321 AND KPER 2 TO BINARY FILE HEADS FROM KSTP 1 AND KPER 2

 SFR-1 SETTING BUDGET TERMS FOR KSTP 321 AND KPER 2 TO BUDGET FILE TERMS FROM KSTP 1 AND KPER 2

end timestep


start timestep kper="2" kstp="322" mode="normal"


 FMI SETTING BUDGET TERMS FOR KSTP 322 AND KPER 2 TO BUDGET FILE TERMS FROM KSTP 1 AND KPER 2

 FMI SETTING HEAD FOR KSTP 322 AND KPER 2 TO BINARY FILE HEADS FROM KSTP 1 AND KPER 2

 SFR-1 SETTING BUDGET TERMS FOR KSTP 322 AND KPER 2 TO BUDGET FILE TERMS FROM KSTP 1 AND KPER 2

end timestep


start timestep kper="2" kstp="323" mode="normal"


 FMI SETTING BUDGET TERMS FOR KSTP 323 AND KPER 2 TO BUDGET FILE TERMS FROM KSTP 1 AND KPER 2

 FMI SETTING HEAD FOR KSTP 323 AND KPER 2 TO BINARY FILE HEADS FROM KSTP 1 AND KPER 2

 SFR-1 SETTING BUDGET TERMS FOR KSTP 323 AND KPER 2 TO BUDGET FILE TERMS FROM KSTP 1 AND KPER 2

end timestep


start timestep kper="2" kstp="324" mode="normal"


 FMI SETTING BUDGET TERMS FOR KSTP 324 AND KPER 2 TO BUDGET FILE TERMS FROM KSTP 1 AND KPER 2

 FMI SETTING HEAD FOR KSTP 324 AND KPER 2 TO BINARY FILE HEADS FROM KSTP 1 AND KPER 2

 SFR-1 SETTING BUDGET TERMS FOR KSTP 324 AND KPER 2 TO BUDGET FILE TERMS FROM KSTP 1 AND KPER 2

end timestep


start timestep kper="2" kstp="325" mode="normal"


 FMI SETTING BUDGET TERMS FOR KSTP 325 AND KPER 2 TO BUDGET FILE TERMS FROM KSTP 1 AND KPER 2

 FMI SETTING HEAD FOR KSTP 325 AND KPER 2 TO BINARY FILE HEADS FROM KSTP 1 AND KPER 2

 SFR-1 SETTING BUDGET TERMS FOR KSTP 325 AND KPER 2 TO BUDGET FILE TERMS FROM KSTP 1 AND KPER 2

end timestep


start timestep kper="2" kstp="326" mode="normal"


 FMI SETTING BUDGET TERMS FOR KSTP 326 AND KPER 2 TO BUDGET FILE TERMS FROM KSTP 1 AND KPER 2

 FMI SETTING HEAD FOR KSTP 326 AND KPER 2 TO BINARY FILE HEADS FROM KSTP 1 AND KPER 2

 SFR-1 SETTING BUDGET TERMS FOR KSTP 326 AND KPER 2 TO BUDGET FILE TERMS FROM KSTP 1 AND KPER 2

end timestep


start timestep kper="2" kstp="327" mode="normal"


 FMI SETTING BUDGET TERMS FOR KSTP 327 AND KPER 2 TO BUDGET FILE TERMS FROM KSTP 1 AND KPER 2

 FMI SETTING HEAD FOR KSTP 327 AND KPER 2 TO BINARY FILE HEADS FROM KSTP 1 AND KPER 2

 SFR-1 SETTING BUDGET TERMS FOR KSTP 327 AND KPER 2 TO BUDGET FILE TERMS FROM KSTP 1 AND KPER 2

end timestep


start timestep kper="2" kstp="328" mode="normal"


 FMI SETTING BUDGET TERMS FOR KSTP 328 AND KPER 2 TO BUDGET FILE TERMS FROM KSTP 1 AND KPER 2

 FMI SETTING HEAD FOR KSTP 328 AND KPER 2 TO BINARY FILE HEADS FROM KSTP 1 AND KPER 2

 SFR-1 SETTING BUDGET TERMS FOR KSTP 328 AND KPER 2 TO BUDGET FILE TERMS FROM KSTP 1 AND KPER 2

end timestep


start timestep kper="2" kstp="329" mode="normal"


 FMI SETTING BUDGET TERMS FOR KSTP 329 AND KPER 2 TO BUDGET FILE TERMS FROM KSTP 1 AND KPER 2

 FMI SETTING HEAD FOR KSTP 329 AND KPER 2 TO BINARY FILE HEADS FROM KSTP 1 AND KPER 2

 SFR-1 SETTING BUDGET TERMS FOR KSTP 329 AND KPER 2 TO BUDGET FILE TERMS FROM KSTP 1 AND KPER 2

end timestep


start timestep kper="2" kstp="330" mode="normal"


 FMI SETTING BUDGET TERMS FOR KSTP 330 AND KPER 2 TO BUDGET FILE TERMS FROM KSTP 1 AND KPER 2

 FMI SETTING HEAD FOR KSTP 330 AND KPER 2 TO BINARY FILE HEADS FROM KSTP 1 AND KPER 2

 SFR-1 SETTING BUDGET TERMS FOR KSTP 330 AND KPER 2 TO BUDGET FILE TERMS FROM KSTP 1 AND KPER 2

 CONCENTRATION WILL BE SAVED ON UNIT 1024 AT END OF TIME STEP  330, STRESS PERIOD    2

end timestep


start timestep kper="2" kstp="331" mode="normal"


 FMI SETTING BUDGET TERMS FOR KSTP 331 AND KPER 2 TO BUDGET FILE TERMS FROM KSTP 1 AND KPER 2

 FMI SETTING HEAD FOR KSTP 331 AND KPER 2 TO BINARY FILE HEADS FROM KSTP 1 AND KPER 2

 SFR-1 SETTING BUDGET TERMS FOR KSTP 331 AND KPER 2 TO BUDGET FILE TERMS FROM KSTP 1 AND KPER 2

end timestep


start timestep kper="2" kstp="332" mode="normal"


 FMI SETTING BUDGET TERMS FOR KSTP 332 AND KPER 2 TO BUDGET FILE TERMS FROM KSTP 1 AND KPER 2

 FMI SETTING HEAD FOR KSTP 332 AND KPER 2 TO BINARY FILE HEADS FROM KSTP 1 AND KPER 2

 SFR-1 SETTING BUDGET TERMS FOR KSTP 332 AND KPER 2 TO BUDGET FILE TERMS FROM KSTP 1 AND KPER 2

end timestep


start timestep kper="2" kstp="333" mode="normal"


 FMI SETTING BUDGET TERMS FOR KSTP 333 AND KPER 2 TO BUDGET FILE TERMS FROM KSTP 1 AND KPER 2

 FMI SETTING HEAD FOR KSTP 333 AND KPER 2 TO BINARY FILE HEADS FROM KSTP 1 AND KPER 2

 SFR-1 SETTING BUDGET TERMS FOR KSTP 333 AND KPER 2 TO BUDGET FILE TERMS FROM KSTP 1 AND KPER 2

end timestep


start timestep kper="2" kstp="334" mode="normal"


 FMI SETTING BUDGET TERMS FOR KSTP 334 AND KPER 2 TO BUDGET FILE TERMS FROM KSTP 1 AND KPER 2

 FMI SETTING HEAD FOR KSTP 334 AND KPER 2 TO BINARY FILE HEADS FROM KSTP 1 AND KPER 2

 SFR-1 SETTING BUDGET TERMS FOR KSTP 334 AND KPER 2 TO BUDGET FILE TERMS FROM KSTP 1 AND KPER 2

end timestep


start timestep kper="2" kstp="335" mode="normal"


 FMI SETTING BUDGET TERMS FOR KSTP 335 AND KPER 2 TO BUDGET FILE TERMS FROM KSTP 1 AND KPER 2

 FMI SETTING HEAD FOR KSTP 335 AND KPER 2 TO BINARY FILE HEADS FROM KSTP 1 AND KPER 2

 SFR-1 SETTING BUDGET TERMS FOR KSTP 335 AND KPER 2 TO BUDGET FILE TERMS FROM KSTP 1 AND KPER 2

end timestep


start timestep kper="2" kstp="336" mode="normal"


 FMI SETTING BUDGET TERMS FOR KSTP 336 AND KPER 2 TO BUDGET FILE TERMS FROM KSTP 1 AND KPER 2

 FMI SETTING HEAD FOR KSTP 336 AND KPER 2 TO BINARY FILE HEADS FROM KSTP 1 AND KPER 2

 SFR-1 SETTING BUDGET TERMS FOR KSTP 336 AND KPER 2 TO BUDGET FILE TERMS FROM KSTP 1 AND KPER 2

end timestep


start timestep kper="2" kstp="337" mode="normal"


 FMI SETTING BUDGET TERMS FOR KSTP 337 AND KPER 2 TO BUDGET FILE TERMS FROM KSTP 1 AND KPER 2

 FMI SETTING HEAD FOR KSTP 337 AND KPER 2 TO BINARY FILE HEADS FROM KSTP 1 AND KPER 2

 SFR-1 SETTING BUDGET TERMS FOR KSTP 337 AND KPER 2 TO BUDGET FILE TERMS FROM KSTP 1 AND KPER 2

end timestep


start timestep kper="2" kstp="338" mode="normal"


 FMI SETTING BUDGET TERMS FOR KSTP 338 AND KPER 2 TO BUDGET FILE TERMS FROM KSTP 1 AND KPER 2

 FMI SETTING HEAD FOR KSTP 338 AND KPER 2 TO BINARY FILE HEADS FROM KSTP 1 AND KPER 2

 SFR-1 SETTING BUDGET TERMS FOR KSTP 338 AND KPER 2 TO BUDGET FILE TERMS FROM KSTP 1 AND KPER 2

end timestep


start timestep kper="2" kstp="339" mode="normal"


 FMI SETTING BUDGET TERMS FOR KSTP 339 AND KPER 2 TO BUDGET FILE TERMS FROM KSTP 1 AND KPER 2

 FMI SETTING HEAD FOR KSTP 339 AND KPER 2 TO BINARY FILE HEADS FROM KSTP 1 AND KPER 2

 SFR-1 SETTING BUDGET TERMS FOR KSTP 339 AND KPER 2 TO BUDGET FILE TERMS FROM KSTP 1 AND KPER 2

end timestep


start timestep kper="2" kstp="340" mode="normal"


 FMI SETTING BUDGET TERMS FOR KSTP 340 AND KPER 2 TO BUDGET FILE TERMS FROM KSTP 1 AND KPER 2

 FMI SETTING HEAD FOR KSTP 340 AND KPER 2 TO BINARY FILE HEADS FROM KSTP 1 AND KPER 2

 SFR-1 SETTING BUDGET TERMS FOR KSTP 340 AND KPER 2 TO BUDGET FILE TERMS FROM KSTP 1 AND KPER 2

 CONCENTRATION WILL BE SAVED ON UNIT 1024 AT END OF TIME STEP  340, STRESS PERIOD    2

end timestep


start timestep kper="2" kstp="341" mode="normal"


 FMI SETTING BUDGET TERMS FOR KSTP 341 AND KPER 2 TO BUDGET FILE TERMS FROM KSTP 1 AND KPER 2

 FMI SETTING HEAD FOR KSTP 341 AND KPER 2 TO BINARY FILE HEADS FROM KSTP 1 AND KPER 2

 SFR-1 SETTING BUDGET TERMS FOR KSTP 341 AND KPER 2 TO BUDGET FILE TERMS FROM KSTP 1 AND KPER 2

end timestep


start timestep kper="2" kstp="342" mode="normal"


 FMI SETTING BUDGET TERMS FOR KSTP 342 AND KPER 2 TO BUDGET FILE TERMS FROM KSTP 1 AND KPER 2

 FMI SETTING HEAD FOR KSTP 342 AND KPER 2 TO BINARY FILE HEADS FROM KSTP 1 AND KPER 2

 SFR-1 SETTING BUDGET TERMS FOR KSTP 342 AND KPER 2 TO BUDGET FILE TERMS FROM KSTP 1 AND KPER 2

end timestep


start timestep kper="2" kstp="343" mode="normal"


 FMI SETTING BUDGET TERMS FOR KSTP 343 AND KPER 2 TO BUDGET FILE TERMS FROM KSTP 1 AND KPER 2

 FMI SETTING HEAD FOR KSTP 343 AND KPER 2 TO BINARY FILE HEADS FROM KSTP 1 AND KPER 2

 SFR-1 SETTING BUDGET TERMS FOR KSTP 343 AND KPER 2 TO BUDGET FILE TERMS FROM KSTP 1 AND KPER 2

end timestep


start timestep kper="2" kstp="344" mode="normal"


 FMI SETTING BUDGET TERMS FOR KSTP 344 AND KPER 2 TO BUDGET FILE TERMS FROM KSTP 1 AND KPER 2

 FMI SETTING HEAD FOR KSTP 344 AND KPER 2 TO BINARY FILE HEADS FROM KSTP 1 AND KPER 2

 SFR-1 SETTING BUDGET TERMS FOR KSTP 344 AND KPER 2 TO BUDGET FILE TERMS FROM KSTP 1 AND KPER 2

end timestep


start timestep kper="2" kstp="345" mode="normal"


 FMI SETTING BUDGET TERMS FOR KSTP 345 AND KPER 2 TO BUDGET FILE TERMS FROM KSTP 1 AND KPER 2

 FMI SETTING HEAD FOR KSTP 345 AND KPER 2 TO BINARY FILE HEADS FROM KSTP 1 AND KPER 2

 SFR-1 SETTING BUDGET TERMS FOR KSTP 345 AND KPER 2 TO BUDGET FILE TERMS FROM KSTP 1 AND KPER 2

end timestep


start timestep kper="2" kstp="346" mode="normal"


 FMI SETTING BUDGET TERMS FOR KSTP 346 AND KPER 2 TO BUDGET FILE TERMS FROM KSTP 1 AND KPER 2

 FMI SETTING HEAD FOR KSTP 346 AND KPER 2 TO BINARY FILE HEADS FROM KSTP 1 AND KPER 2

 SFR-1 SETTING BUDGET TERMS FOR KSTP 346 AND KPER 2 TO BUDGET FILE TERMS FROM KSTP 1 AND KPER 2

end timestep


start timestep kper="2" kstp="347" mode="normal"


 FMI SETTING BUDGET TERMS FOR KSTP 347 AND KPER 2 TO BUDGET FILE TERMS FROM KSTP 1 AND KPER 2

 FMI SETTING HEAD FOR KSTP 347 AND KPER 2 TO BINARY FILE HEADS FROM KSTP 1 AND KPER 2

 SFR-1 SETTING BUDGET TERMS FOR KSTP 347 AND KPER 2 TO BUDGET FILE TERMS FROM KSTP 1 AND KPER 2

end timestep


start timestep kper="2" kstp="348" mode="normal"


 FMI SETTING BUDGET TERMS FOR KSTP 348 AND KPER 2 TO BUDGET FILE TERMS FROM KSTP 1 AND KPER 2

 FMI SETTING HEAD FOR KSTP 348 AND KPER 2 TO BINARY FILE HEADS FROM KSTP 1 AND KPER 2

 SFR-1 SETTING BUDGET TERMS FOR KSTP 348 AND KPER 2 TO BUDGET FILE TERMS FROM KSTP 1 AND KPER 2

end timestep


start timestep kper="2" kstp="349" mode="normal"


 FMI SETTING BUDGET TERMS FOR KSTP 349 AND KPER 2 TO BUDGET FILE TERMS FROM KSTP 1 AND KPER 2

 FMI SETTING HEAD FOR KSTP 349 AND KPER 2 TO BINARY FILE HEADS FROM KSTP 1 AND KPER 2

 SFR-1 SETTING BUDGET TERMS FOR KSTP 349 AND KPER 2 TO BUDGET FILE TERMS FROM KSTP 1 AND KPER 2

end timestep


start timestep kper="2" kstp="350" mode="normal"


 FMI SETTING BUDGET TERMS FOR KSTP 350 AND KPER 2 TO BUDGET FILE TERMS FROM KSTP 1 AND KPER 2

 FMI SETTING HEAD FOR KSTP 350 AND KPER 2 TO BINARY FILE HEADS FROM KSTP 1 AND KPER 2

 SFR-1 SETTING BUDGET TERMS FOR KSTP 350 AND KPER 2 TO BUDGET FILE TERMS FROM KSTP 1 AND KPER 2

 CONCENTRATION WILL BE SAVED ON UNIT 1024 AT END OF TIME STEP  350, STRESS PERIOD    2

end timestep


start timestep kper="2" kstp="351" mode="normal"


 FMI SETTING BUDGET TERMS FOR KSTP 351 AND KPER 2 TO BUDGET FILE TERMS FROM KSTP 1 AND KPER 2

 FMI SETTING HEAD FOR KSTP 351 AND KPER 2 TO BINARY FILE HEADS FROM KSTP 1 AND KPER 2

 SFR-1 SETTING BUDGET TERMS FOR KSTP 351 AND KPER 2 TO BUDGET FILE TERMS FROM KSTP 1 AND KPER 2

end timestep


start timestep kper="2" kstp="352" mode="normal"


 FMI SETTING BUDGET TERMS FOR KSTP 352 AND KPER 2 TO BUDGET FILE TERMS FROM KSTP 1 AND KPER 2

 FMI SETTING HEAD FOR KSTP 352 AND KPER 2 TO BINARY FILE HEADS FROM KSTP 1 AND KPER 2

 SFR-1 SETTING BUDGET TERMS FOR KSTP 352 AND KPER 2 TO BUDGET FILE TERMS FROM KSTP 1 AND KPER 2

end timestep


start timestep kper="2" kstp="353" mode="normal"


 FMI SETTING BUDGET TERMS FOR KSTP 353 AND KPER 2 TO BUDGET FILE TERMS FROM KSTP 1 AND KPER 2

 FMI SETTING HEAD FOR KSTP 353 AND KPER 2 TO BINARY FILE HEADS FROM KSTP 1 AND KPER 2

 SFR-1 SETTING BUDGET TERMS FOR KSTP 353 AND KPER 2 TO BUDGET FILE TERMS FROM KSTP 1 AND KPER 2

end timestep


start timestep kper="2" kstp="354" mode="normal"


 FMI SETTING BUDGET TERMS FOR KSTP 354 AND KPER 2 TO BUDGET FILE TERMS FROM KSTP 1 AND KPER 2

 FMI SETTING HEAD FOR KSTP 354 AND KPER 2 TO BINARY FILE HEADS FROM KSTP 1 AND KPER 2

 SFR-1 SETTING BUDGET TERMS FOR KSTP 354 AND KPER 2 TO BUDGET FILE TERMS FROM KSTP 1 AND KPER 2

end timestep


start timestep kper="2" kstp="355" mode="normal"


 FMI SETTING BUDGET TERMS FOR KSTP 355 AND KPER 2 TO BUDGET FILE TERMS FROM KSTP 1 AND KPER 2

 FMI SETTING HEAD FOR KSTP 355 AND KPER 2 TO BINARY FILE HEADS FROM KSTP 1 AND KPER 2

 SFR-1 SETTING BUDGET TERMS FOR KSTP 355 AND KPER 2 TO BUDGET FILE TERMS FROM KSTP 1 AND KPER 2

end timestep


start timestep kper="2" kstp="356" mode="normal"


 FMI SETTING BUDGET TERMS FOR KSTP 356 AND KPER 2 TO BUDGET FILE TERMS FROM KSTP 1 AND KPER 2

 FMI SETTING HEAD FOR KSTP 356 AND KPER 2 TO BINARY FILE HEADS FROM KSTP 1 AND KPER 2

 SFR-1 SETTING BUDGET TERMS FOR KSTP 356 AND KPER 2 TO BUDGET FILE TERMS FROM KSTP 1 AND KPER 2

end timestep


start timestep kper="2" kstp="357" mode="normal"


 FMI SETTING BUDGET TERMS FOR KSTP 357 AND KPER 2 TO BUDGET FILE TERMS FROM KSTP 1 AND KPER 2

 FMI SETTING HEAD FOR KSTP 357 AND KPER 2 TO BINARY FILE HEADS FROM KSTP 1 AND KPER 2

 SFR-1 SETTING BUDGET TERMS FOR KSTP 357 AND KPER 2 TO BUDGET FILE TERMS FROM KSTP 1 AND KPER 2

end timestep


start timestep kper="2" kstp="358" mode="normal"


 FMI SETTING BUDGET TERMS FOR KSTP 358 AND KPER 2 TO BUDGET FILE TERMS FROM KSTP 1 AND KPER 2

 FMI SETTING HEAD FOR KSTP 358 AND KPER 2 TO BINARY FILE HEADS FROM KSTP 1 AND KPER 2

 SFR-1 SETTING BUDGET TERMS FOR KSTP 358 AND KPER 2 TO BUDGET FILE TERMS FROM KSTP 1 AND KPER 2

end timestep


start timestep kper="2" kstp="359" mode="normal"


 FMI SETTING BUDGET TERMS FOR KSTP 359 AND KPER 2 TO BUDGET FILE TERMS FROM KSTP 1 AND KPER 2

 FMI SETTING HEAD FOR KSTP 359 AND KPER 2 TO BINARY FILE HEADS FROM KSTP 1 AND KPER 2

 SFR-1 SETTING BUDGET TERMS FOR KSTP 359 AND KPER 2 TO BUDGET FILE TERMS FROM KSTP 1 AND KPER 2

end timestep


start timestep kper="2" kstp="360" mode="normal"


 FMI SETTING BUDGET TERMS FOR KSTP 360 AND KPER 2 TO BUDGET FILE TERMS FROM KSTP 1 AND KPER 2

 FMI SETTING HEAD FOR KSTP 360 AND KPER 2 TO BINARY FILE HEADS FROM KSTP 1 AND KPER 2

 SFR-1 SETTING BUDGET TERMS FOR KSTP 360 AND KPER 2 TO BUDGET FILE TERMS FROM KSTP 1 AND KPER 2

 CONCENTRATION WILL BE SAVED ON UNIT 1024 AT END OF TIME STEP  360, STRESS PERIOD    2

end timestep


start timestep kper="2" kstp="361" mode="normal"


 FMI SETTING BUDGET TERMS FOR KSTP 361 AND KPER 2 TO BUDGET FILE TERMS FROM KSTP 1 AND KPER 2

 FMI SETTING HEAD FOR KSTP 361 AND KPER 2 TO BINARY FILE HEADS FROM KSTP 1 AND KPER 2

 SFR-1 SETTING BUDGET TERMS FOR KSTP 361 AND KPER 2 TO BUDGET FILE TERMS FROM KSTP 1 AND KPER 2

end timestep


start timestep kper="2" kstp="362" mode="normal"


 FMI SETTING BUDGET TERMS FOR KSTP 362 AND KPER 2 TO BUDGET FILE TERMS FROM KSTP 1 AND KPER 2

 FMI SETTING HEAD FOR KSTP 362 AND KPER 2 TO BINARY FILE HEADS FROM KSTP 1 AND KPER 2

 SFR-1 SETTING BUDGET TERMS FOR KSTP 362 AND KPER 2 TO BUDGET FILE TERMS FROM KSTP 1 AND KPER 2

end timestep


start timestep kper="2" kstp="363" mode="normal"


 FMI SETTING BUDGET TERMS FOR KSTP 363 AND KPER 2 TO BUDGET FILE TERMS FROM KSTP 1 AND KPER 2

 FMI SETTING HEAD FOR KSTP 363 AND KPER 2 TO BINARY FILE HEADS FROM KSTP 1 AND KPER 2

 SFR-1 SETTING BUDGET TERMS FOR KSTP 363 AND KPER 2 TO BUDGET FILE TERMS FROM KSTP 1 AND KPER 2

end timestep


start timestep kper="2" kstp="364" mode="normal"


 FMI SETTING BUDGET TERMS FOR KSTP 364 AND KPER 2 TO BUDGET FILE TERMS FROM KSTP 1 AND KPER 2

 FMI SETTING HEAD FOR KSTP 364 AND KPER 2 TO BINARY FILE HEADS FROM KSTP 1 AND KPER 2

 SFR-1 SETTING BUDGET TERMS FOR KSTP 364 AND KPER 2 TO BUDGET FILE TERMS FROM KSTP 1 AND KPER 2

end timestep


start timestep kper="2" kstp="365" mode="normal"


 FMI SETTING BUDGET TERMS FOR KSTP 365 AND KPER 2 TO BUDGET FILE TERMS FROM KSTP 1 AND KPER 2

 FMI SETTING HEAD FOR KSTP 365 AND KPER 2 TO BINARY FILE HEADS FROM KSTP 1 AND KPER 2

 SFR-1 SETTING BUDGET TERMS FOR KSTP 365 AND KPER 2 TO BUDGET FILE TERMS FROM KSTP 1 AND KPER 2

end timestep


start timestep kper="2" kstp="366" mode="normal"


 FMI SETTING BUDGET TERMS FOR KSTP 366 AND KPER 2 TO BUDGET FILE TERMS FROM KSTP 1 AND KPER 2

 FMI SETTING HEAD FOR KSTP 366 AND KPER 2 TO BINARY FILE HEADS FROM KSTP 1 AND KPER 2

 SFR-1 SETTING BUDGET TERMS FOR KSTP 366 AND KPER 2 TO BUDGET FILE TERMS FROM KSTP 1 AND KPER 2

end timestep


start timestep kper="2" kstp="367" mode="normal"


 FMI SETTING BUDGET TERMS FOR KSTP 367 AND KPER 2 TO BUDGET FILE TERMS FROM KSTP 1 AND KPER 2

 FMI SETTING HEAD FOR KSTP 367 AND KPER 2 TO BINARY FILE HEADS FROM KSTP 1 AND KPER 2

 SFR-1 SETTING BUDGET TERMS FOR KSTP 367 AND KPER 2 TO BUDGET FILE TERMS FROM KSTP 1 AND KPER 2

end timestep


start timestep kper="2" kstp="368" mode="normal"


 FMI SETTING BUDGET TERMS FOR KSTP 368 AND KPER 2 TO BUDGET FILE TERMS FROM KSTP 1 AND KPER 2

 FMI SETTING HEAD FOR KSTP 368 AND KPER 2 TO BINARY FILE HEADS FROM KSTP 1 AND KPER 2

 SFR-1 SETTING BUDGET TERMS FOR KSTP 368 AND KPER 2 TO BUDGET FILE TERMS FROM KSTP 1 AND KPER 2

end timestep


start timestep kper="2" kstp="369" mode="normal"


 FMI SETTING BUDGET TERMS FOR KSTP 369 AND KPER 2 TO BUDGET FILE TERMS FROM KSTP 1 AND KPER 2

 FMI SETTING HEAD FOR KSTP 369 AND KPER 2 TO BINARY FILE HEADS FROM KSTP 1 AND KPER 2

 SFR-1 SETTING BUDGET TERMS FOR KSTP 369 AND KPER 2 TO BUDGET FILE TERMS FROM KSTP 1 AND KPER 2

end timestep


start timestep kper="2" kstp="370" mode="normal"


 FMI SETTING BUDGET TERMS FOR KSTP 370 AND KPER 2 TO BUDGET FILE TERMS FROM KSTP 1 AND KPER 2

 FMI SETTING HEAD FOR KSTP 370 AND KPER 2 TO BINARY FILE HEADS FROM KSTP 1 AND KPER 2

 SFR-1 SETTING BUDGET TERMS FOR KSTP 370 AND KPER 2 TO BUDGET FILE TERMS FROM KSTP 1 AND KPER 2

 CONCENTRATION WILL BE SAVED ON UNIT 1024 AT END OF TIME STEP  370, STRESS PERIOD    2

end timestep


start timestep kper="2" kstp="371" mode="normal"


 FMI SETTING BUDGET TERMS FOR KSTP 371 AND KPER 2 TO BUDGET FILE TERMS FROM KSTP 1 AND KPER 2

 FMI SETTING HEAD FOR KSTP 371 AND KPER 2 TO BINARY FILE HEADS FROM KSTP 1 AND KPER 2

 SFR-1 SETTING BUDGET TERMS FOR KSTP 371 AND KPER 2 TO BUDGET FILE TERMS FROM KSTP 1 AND KPER 2

end timestep


start timestep kper="2" kstp="372" mode="normal"


 FMI SETTING BUDGET TERMS FOR KSTP 372 AND KPER 2 TO BUDGET FILE TERMS FROM KSTP 1 AND KPER 2

 FMI SETTING HEAD FOR KSTP 372 AND KPER 2 TO BINARY FILE HEADS FROM KSTP 1 AND KPER 2

 SFR-1 SETTING BUDGET TERMS FOR KSTP 372 AND KPER 2 TO BUDGET FILE TERMS FROM KSTP 1 AND KPER 2

end timestep


start timestep kper="2" kstp="373" mode="normal"


 FMI SETTING BUDGET TERMS FOR KSTP 373 AND KPER 2 TO BUDGET FILE TERMS FROM KSTP 1 AND KPER 2

 FMI SETTING HEAD FOR KSTP 373 AND KPER 2 TO BINARY FILE HEADS FROM KSTP 1 AND KPER 2

 SFR-1 SETTING BUDGET TERMS FOR KSTP 373 AND KPER 2 TO BUDGET FILE TERMS FROM KSTP 1 AND KPER 2

end timestep


start timestep kper="2" kstp="374" mode="normal"


 FMI SETTING BUDGET TERMS FOR KSTP 374 AND KPER 2 TO BUDGET FILE TERMS FROM KSTP 1 AND KPER 2

 FMI SETTING HEAD FOR KSTP 374 AND KPER 2 TO BINARY FILE HEADS FROM KSTP 1 AND KPER 2

 SFR-1 SETTING BUDGET TERMS FOR KSTP 374 AND KPER 2 TO BUDGET FILE TERMS FROM KSTP 1 AND KPER 2

end timestep


start timestep kper="2" kstp="375" mode="normal"


 FMI SETTING BUDGET TERMS FOR KSTP 375 AND KPER 2 TO BUDGET FILE TERMS FROM KSTP 1 AND KPER 2

 FMI SETTING HEAD FOR KSTP 375 AND KPER 2 TO BINARY FILE HEADS FROM KSTP 1 AND KPER 2

 SFR-1 SETTING BUDGET TERMS FOR KSTP 375 AND KPER 2 TO BUDGET FILE TERMS FROM KSTP 1 AND KPER 2

end timestep


start timestep kper="2" kstp="376" mode="normal"


 FMI SETTING BUDGET TERMS FOR KSTP 376 AND KPER 2 TO BUDGET FILE TERMS FROM KSTP 1 AND KPER 2

 FMI SETTING HEAD FOR KSTP 376 AND KPER 2 TO BINARY FILE HEADS FROM KSTP 1 AND KPER 2

 SFR-1 SETTING BUDGET TERMS FOR KSTP 376 AND KPER 2 TO BUDGET FILE TERMS FROM KSTP 1 AND KPER 2

end timestep


start timestep kper="2" kstp="377" mode="normal"


 FMI SETTING BUDGET TERMS FOR KSTP 377 AND KPER 2 TO BUDGET FILE TERMS FROM KSTP 1 AND KPER 2

 FMI SETTING HEAD FOR KSTP 377 AND KPER 2 TO BINARY FILE HEADS FROM KSTP 1 AND KPER 2

 SFR-1 SETTING BUDGET TERMS FOR KSTP 377 AND KPER 2 TO BUDGET FILE TERMS FROM KSTP 1 AND KPER 2

end timestep


start timestep kper="2" kstp="378" mode="normal"


 FMI SETTING BUDGET TERMS FOR KSTP 378 AND KPER 2 TO BUDGET FILE TERMS FROM KSTP 1 AND KPER 2

 FMI SETTING HEAD FOR KSTP 378 AND KPER 2 TO BINARY FILE HEADS FROM KSTP 1 AND KPER 2

 SFR-1 SETTING BUDGET TERMS FOR KSTP 378 AND KPER 2 TO BUDGET FILE TERMS FROM KSTP 1 AND KPER 2

end timestep


start timestep kper="2" kstp="379" mode="normal"


 FMI SETTING BUDGET TERMS FOR KSTP 379 AND KPER 2 TO BUDGET FILE TERMS FROM KSTP 1 AND KPER 2

 FMI SETTING HEAD FOR KSTP 379 AND KPER 2 TO BINARY FILE HEADS FROM KSTP 1 AND KPER 2

 SFR-1 SETTING BUDGET TERMS FOR KSTP 379 AND KPER 2 TO BUDGET FILE TERMS FROM KSTP 1 AND KPER 2

end timestep


start timestep kper="2" kstp="380" mode="normal"


 FMI SETTING BUDGET TERMS FOR KSTP 380 AND KPER 2 TO BUDGET FILE TERMS FROM KSTP 1 AND KPER 2

 FMI SETTING HEAD FOR KSTP 380 AND KPER 2 TO BINARY FILE HEADS FROM KSTP 1 AND KPER 2

 SFR-1 SETTING BUDGET TERMS FOR KSTP 380 AND KPER 2 TO BUDGET FILE TERMS FROM KSTP 1 AND KPER 2

 CONCENTRATION WILL BE SAVED ON UNIT 1024 AT END OF TIME STEP  380, STRESS PERIOD    2

end timestep


start timestep kper="2" kstp="381" mode="normal"


 FMI SETTING BUDGET TERMS FOR KSTP 381 AND KPER 2 TO BUDGET FILE TERMS FROM KSTP 1 AND KPER 2

 FMI SETTING HEAD FOR KSTP 381 AND KPER 2 TO BINARY FILE HEADS FROM KSTP 1 AND KPER 2

 SFR-1 SETTING BUDGET TERMS FOR KSTP 381 AND KPER 2 TO BUDGET FILE TERMS FROM KSTP 1 AND KPER 2

end timestep


start timestep kper="2" kstp="382" mode="normal"


 FMI SETTING BUDGET TERMS FOR KSTP 382 AND KPER 2 TO BUDGET FILE TERMS FROM KSTP 1 AND KPER 2

 FMI SETTING HEAD FOR KSTP 382 AND KPER 2 TO BINARY FILE HEADS FROM KSTP 1 AND KPER 2

 SFR-1 SETTING BUDGET TERMS FOR KSTP 382 AND KPER 2 TO BUDGET FILE TERMS FROM KSTP 1 AND KPER 2

end timestep


start timestep kper="2" kstp="383" mode="normal"


 FMI SETTING BUDGET TERMS FOR KSTP 383 AND KPER 2 TO BUDGET FILE TERMS FROM KSTP 1 AND KPER 2

 FMI SETTING HEAD FOR KSTP 383 AND KPER 2 TO BINARY FILE HEADS FROM KSTP 1 AND KPER 2

 SFR-1 SETTING BUDGET TERMS FOR KSTP 383 AND KPER 2 TO BUDGET FILE TERMS FROM KSTP 1 AND KPER 2

end timestep


start timestep kper="2" kstp="384" mode="normal"


 FMI SETTING BUDGET TERMS FOR KSTP 384 AND KPER 2 TO BUDGET FILE TERMS FROM KSTP 1 AND KPER 2

 FMI SETTING HEAD FOR KSTP 384 AND KPER 2 TO BINARY FILE HEADS FROM KSTP 1 AND KPER 2

 SFR-1 SETTING BUDGET TERMS FOR KSTP 384 AND KPER 2 TO BUDGET FILE TERMS FROM KSTP 1 AND KPER 2

end timestep


start timestep kper="2" kstp="385" mode="normal"


 FMI SETTING BUDGET TERMS FOR KSTP 385 AND KPER 2 TO BUDGET FILE TERMS FROM KSTP 1 AND KPER 2

 FMI SETTING HEAD FOR KSTP 385 AND KPER 2 TO BINARY FILE HEADS FROM KSTP 1 AND KPER 2

 SFR-1 SETTING BUDGET TERMS FOR KSTP 385 AND KPER 2 TO BUDGET FILE TERMS FROM KSTP 1 AND KPER 2

end timestep


start timestep kper="2" kstp="386" mode="normal"


 FMI SETTING BUDGET TERMS FOR KSTP 386 AND KPER 2 TO BUDGET FILE TERMS FROM KSTP 1 AND KPER 2

 FMI SETTING HEAD FOR KSTP 386 AND KPER 2 TO BINARY FILE HEADS FROM KSTP 1 AND KPER 2

 SFR-1 SETTING BUDGET TERMS FOR KSTP 386 AND KPER 2 TO BUDGET FILE TERMS FROM KSTP 1 AND KPER 2

end timestep


start timestep kper="2" kstp="387" mode="normal"


 FMI SETTING BUDGET TERMS FOR KSTP 387 AND KPER 2 TO BUDGET FILE TERMS FROM KSTP 1 AND KPER 2

 FMI SETTING HEAD FOR KSTP 387 AND KPER 2 TO BINARY FILE HEADS FROM KSTP 1 AND KPER 2

 SFR-1 SETTING BUDGET TERMS FOR KSTP 387 AND KPER 2 TO BUDGET FILE TERMS FROM KSTP 1 AND KPER 2

end timestep


start timestep kper="2" kstp="388" mode="normal"


 FMI SETTING BUDGET TERMS FOR KSTP 388 AND KPER 2 TO BUDGET FILE TERMS FROM KSTP 1 AND KPER 2

 FMI SETTING HEAD FOR KSTP 388 AND KPER 2 TO BINARY FILE HEADS FROM KSTP 1 AND KPER 2

 SFR-1 SETTING BUDGET TERMS FOR KSTP 388 AND KPER 2 TO BUDGET FILE TERMS FROM KSTP 1 AND KPER 2

end timestep


start timestep kper="2" kstp="389" mode="normal"


 FMI SETTING BUDGET TERMS FOR KSTP 389 AND KPER 2 TO BUDGET FILE TERMS FROM KSTP 1 AND KPER 2

 FMI SETTING HEAD FOR KSTP 389 AND KPER 2 TO BINARY FILE HEADS FROM KSTP 1 AND KPER 2

 SFR-1 SETTING BUDGET TERMS FOR KSTP 389 AND KPER 2 TO BUDGET FILE TERMS FROM KSTP 1 AND KPER 2

end timestep


start timestep kper="2" kstp="390" mode="normal"


 FMI SETTING BUDGET TERMS FOR KSTP 390 AND KPER 2 TO BUDGET FILE TERMS FROM KSTP 1 AND KPER 2

 FMI SETTING HEAD FOR KSTP 390 AND KPER 2 TO BINARY FILE HEADS FROM KSTP 1 AND KPER 2

 SFR-1 SETTING BUDGET TERMS FOR KSTP 390 AND KPER 2 TO BUDGET FILE TERMS FROM KSTP 1 AND KPER 2

 CONCENTRATION WILL BE SAVED ON UNIT 1024 AT END OF TIME STEP  390, STRESS PERIOD    2

end timestep


start timestep kper="2" kstp="391" mode="normal"


 FMI SETTING BUDGET TERMS FOR KSTP 391 AND KPER 2 TO BUDGET FILE TERMS FROM KSTP 1 AND KPER 2

 FMI SETTING HEAD FOR KSTP 391 AND KPER 2 TO BINARY FILE HEADS FROM KSTP 1 AND KPER 2

 SFR-1 SETTING BUDGET TERMS FOR KSTP 391 AND KPER 2 TO BUDGET FILE TERMS FROM KSTP 1 AND KPER 2

end timestep


start timestep kper="2" kstp="392" mode="normal"


 FMI SETTING BUDGET TERMS FOR KSTP 392 AND KPER 2 TO BUDGET FILE TERMS FROM KSTP 1 AND KPER 2

 FMI SETTING HEAD FOR KSTP 392 AND KPER 2 TO BINARY FILE HEADS FROM KSTP 1 AND KPER 2

 SFR-1 SETTING BUDGET TERMS FOR KSTP 392 AND KPER 2 TO BUDGET FILE TERMS FROM KSTP 1 AND KPER 2

end timestep


start timestep kper="2" kstp="393" mode="normal"


 FMI SETTING BUDGET TERMS FOR KSTP 393 AND KPER 2 TO BUDGET FILE TERMS FROM KSTP 1 AND KPER 2

 FMI SETTING HEAD FOR KSTP 393 AND KPER 2 TO BINARY FILE HEADS FROM KSTP 1 AND KPER 2

 SFR-1 SETTING BUDGET TERMS FOR KSTP 393 AND KPER 2 TO BUDGET FILE TERMS FROM KSTP 1 AND KPER 2

end timestep


start timestep kper="2" kstp="394" mode="normal"


 FMI SETTING BUDGET TERMS FOR KSTP 394 AND KPER 2 TO BUDGET FILE TERMS FROM KSTP 1 AND KPER 2

 FMI SETTING HEAD FOR KSTP 394 AND KPER 2 TO BINARY FILE HEADS FROM KSTP 1 AND KPER 2

 SFR-1 SETTING BUDGET TERMS FOR KSTP 394 AND KPER 2 TO BUDGET FILE TERMS FROM KSTP 1 AND KPER 2

end timestep


start timestep kper="2" kstp="395" mode="normal"


 FMI SETTING BUDGET TERMS FOR KSTP 395 AND KPER 2 TO BUDGET FILE TERMS FROM KSTP 1 AND KPER 2

 FMI SETTING HEAD FOR KSTP 395 AND KPER 2 TO BINARY FILE HEADS FROM KSTP 1 AND KPER 2

 SFR-1 SETTING BUDGET TERMS FOR KSTP 395 AND KPER 2 TO BUDGET FILE TERMS FROM KSTP 1 AND KPER 2

end timestep


start timestep kper="2" kstp="396" mode="normal"


 FMI SETTING BUDGET TERMS FOR KSTP 396 AND KPER 2 TO BUDGET FILE TERMS FROM KSTP 1 AND KPER 2

 FMI SETTING HEAD FOR KSTP 396 AND KPER 2 TO BINARY FILE HEADS FROM KSTP 1 AND KPER 2

 SFR-1 SETTING BUDGET TERMS FOR KSTP 396 AND KPER 2 TO BUDGET FILE TERMS FROM KSTP 1 AND KPER 2

end timestep


start timestep kper="2" kstp="397" mode="normal"


 FMI SETTING BUDGET TERMS FOR KSTP 397 AND KPER 2 TO BUDGET FILE TERMS FROM KSTP 1 AND KPER 2

 FMI SETTING HEAD FOR KSTP 397 AND KPER 2 TO BINARY FILE HEADS FROM KSTP 1 AND KPER 2

 SFR-1 SETTING BUDGET TERMS FOR KSTP 397 AND KPER 2 TO BUDGET FILE TERMS FROM KSTP 1 AND KPER 2

end timestep


start timestep kper="2" kstp="398" mode="normal"


 FMI SETTING BUDGET TERMS FOR KSTP 398 AND KPER 2 TO BUDGET FILE TERMS FROM KSTP 1 AND KPER 2

 FMI SETTING HEAD FOR KSTP 398 AND KPER 2 TO BINARY FILE HEADS FROM KSTP 1 AND KPER 2

 SFR-1 SETTING BUDGET TERMS FOR KSTP 398 AND KPER 2 TO BUDGET FILE TERMS FROM KSTP 1 AND KPER 2

end timestep


start timestep kper="2" kstp="399" mode="normal"


 FMI SETTING BUDGET TERMS FOR KSTP 399 AND KPER 2 TO BUDGET FILE TERMS FROM KSTP 1 AND KPER 2

 FMI SETTING HEAD FOR KSTP 399 AND KPER 2 TO BINARY FILE HEADS FROM KSTP 1 AND KPER 2

 SFR-1 SETTING BUDGET TERMS FOR KSTP 399 AND KPER 2 TO BUDGET FILE TERMS FROM KSTP 1 AND KPER 2

end timestep


start timestep kper="2" kstp="400" mode="normal"


 FMI SETTING BUDGET TERMS FOR KSTP 400 AND KPER 2 TO BUDGET FILE TERMS FROM KSTP 1 AND KPER 2

 FMI SETTING HEAD FOR KSTP 400 AND KPER 2 TO BINARY FILE HEADS FROM KSTP 1 AND KPER 2

 SFR-1 SETTING BUDGET TERMS FOR KSTP 400 AND KPER 2 TO BUDGET FILE TERMS FROM KSTP 1 AND KPER 2

 CONCENTRATION WILL BE SAVED ON UNIT 1024 AT END OF TIME STEP  400, STRESS PERIOD    2

end timestep


start timestep kper="2" kstp="401" mode="normal"


 FMI SETTING BUDGET TERMS FOR KSTP 401 AND KPER 2 TO BUDGET FILE TERMS FROM KSTP 1 AND KPER 2

 FMI SETTING HEAD FOR KSTP 401 AND KPER 2 TO BINARY FILE HEADS FROM KSTP 1 AND KPER 2

 SFR-1 SETTING BUDGET TERMS FOR KSTP 401 AND KPER 2 TO BUDGET FILE TERMS FROM KSTP 1 AND KPER 2

end timestep


start timestep kper="2" kstp="402" mode="normal"


 FMI SETTING BUDGET TERMS FOR KSTP 402 AND KPER 2 TO BUDGET FILE TERMS FROM KSTP 1 AND KPER 2

 FMI SETTING HEAD FOR KSTP 402 AND KPER 2 TO BINARY FILE HEADS FROM KSTP 1 AND KPER 2

 SFR-1 SETTING BUDGET TERMS FOR KSTP 402 AND KPER 2 TO BUDGET FILE TERMS FROM KSTP 1 AND KPER 2

end timestep


start timestep kper="2" kstp="403" mode="normal"


 FMI SETTING BUDGET TERMS FOR KSTP 403 AND KPER 2 TO BUDGET FILE TERMS FROM KSTP 1 AND KPER 2

 FMI SETTING HEAD FOR KSTP 403 AND KPER 2 TO BINARY FILE HEADS FROM KSTP 1 AND KPER 2

 SFR-1 SETTING BUDGET TERMS FOR KSTP 403 AND KPER 2 TO BUDGET FILE TERMS FROM KSTP 1 AND KPER 2

end timestep


start timestep kper="2" kstp="404" mode="normal"


 FMI SETTING BUDGET TERMS FOR KSTP 404 AND KPER 2 TO BUDGET FILE TERMS FROM KSTP 1 AND KPER 2

 FMI SETTING HEAD FOR KSTP 404 AND KPER 2 TO BINARY FILE HEADS FROM KSTP 1 AND KPER 2

 SFR-1 SETTING BUDGET TERMS FOR KSTP 404 AND KPER 2 TO BUDGET FILE TERMS FROM KSTP 1 AND KPER 2

end timestep


start timestep kper="2" kstp="405" mode="normal"


 FMI SETTING BUDGET TERMS FOR KSTP 405 AND KPER 2 TO BUDGET FILE TERMS FROM KSTP 1 AND KPER 2

 FMI SETTING HEAD FOR KSTP 405 AND KPER 2 TO BINARY FILE HEADS FROM KSTP 1 AND KPER 2

 SFR-1 SETTING BUDGET TERMS FOR KSTP 405 AND KPER 2 TO BUDGET FILE TERMS FROM KSTP 1 AND KPER 2

end timestep


start timestep kper="2" kstp="406" mode="normal"


 FMI SETTING BUDGET TERMS FOR KSTP 406 AND KPER 2 TO BUDGET FILE TERMS FROM KSTP 1 AND KPER 2

 FMI SETTING HEAD FOR KSTP 406 AND KPER 2 TO BINARY FILE HEADS FROM KSTP 1 AND KPER 2

 SFR-1 SETTING BUDGET TERMS FOR KSTP 406 AND KPER 2 TO BUDGET FILE TERMS FROM KSTP 1 AND KPER 2

end timestep


start timestep kper="2" kstp="407" mode="normal"


 FMI SETTING BUDGET TERMS FOR KSTP 407 AND KPER 2 TO BUDGET FILE TERMS FROM KSTP 1 AND KPER 2

 FMI SETTING HEAD FOR KSTP 407 AND KPER 2 TO BINARY FILE HEADS FROM KSTP 1 AND KPER 2

 SFR-1 SETTING BUDGET TERMS FOR KSTP 407 AND KPER 2 TO BUDGET FILE TERMS FROM KSTP 1 AND KPER 2

end timestep


start timestep kper="2" kstp="408" mode="normal"


 FMI SETTING BUDGET TERMS FOR KSTP 408 AND KPER 2 TO BUDGET FILE TERMS FROM KSTP 1 AND KPER 2

 FMI SETTING HEAD FOR KSTP 408 AND KPER 2 TO BINARY FILE HEADS FROM KSTP 1 AND KPER 2

 SFR-1 SETTING BUDGET TERMS FOR KSTP 408 AND KPER 2 TO BUDGET FILE TERMS FROM KSTP 1 AND KPER 2

end timestep


start timestep kper="2" kstp="409" mode="normal"


 FMI SETTING BUDGET TERMS FOR KSTP 409 AND KPER 2 TO BUDGET FILE TERMS FROM KSTP 1 AND KPER 2

 FMI SETTING HEAD FOR KSTP 409 AND KPER 2 TO BINARY FILE HEADS FROM KSTP 1 AND KPER 2

 SFR-1 SETTING BUDGET TERMS FOR KSTP 409 AND KPER 2 TO BUDGET FILE TERMS FROM KSTP 1 AND KPER 2

end timestep


start timestep kper="2" kstp="410" mode="normal"


 FMI SETTING BUDGET TERMS FOR KSTP 410 AND KPER 2 TO BUDGET FILE TERMS FROM KSTP 1 AND KPER 2

 FMI SETTING HEAD FOR KSTP 410 AND KPER 2 TO BINARY FILE HEADS FROM KSTP 1 AND KPER 2

 SFR-1 SETTING BUDGET TERMS FOR KSTP 410 AND KPER 2 TO BUDGET FILE TERMS FROM KSTP 1 AND KPER 2

 CONCENTRATION WILL BE SAVED ON UNIT 1024 AT END OF TIME STEP  410, STRESS PERIOD    2

end timestep


start timestep kper="2" kstp="411" mode="normal"


 FMI SETTING BUDGET TERMS FOR KSTP 411 AND KPER 2 TO BUDGET FILE TERMS FROM KSTP 1 AND KPER 2

 FMI SETTING HEAD FOR KSTP 411 AND KPER 2 TO BINARY FILE HEADS FROM KSTP 1 AND KPER 2

 SFR-1 SETTING BUDGET TERMS FOR KSTP 411 AND KPER 2 TO BUDGET FILE TERMS FROM KSTP 1 AND KPER 2

end timestep


start timestep kper="2" kstp="412" mode="normal"


 FMI SETTING BUDGET TERMS FOR KSTP 412 AND KPER 2 TO BUDGET FILE TERMS FROM KSTP 1 AND KPER 2

 FMI SETTING HEAD FOR KSTP 412 AND KPER 2 TO BINARY FILE HEADS FROM KSTP 1 AND KPER 2

 SFR-1 SETTING BUDGET TERMS FOR KSTP 412 AND KPER 2 TO BUDGET FILE TERMS FROM KSTP 1 AND KPER 2

end timestep


start timestep kper="2" kstp="413" mode="normal"


 FMI SETTING BUDGET TERMS FOR KSTP 413 AND KPER 2 TO BUDGET FILE TERMS FROM KSTP 1 AND KPER 2

 FMI SETTING HEAD FOR KSTP 413 AND KPER 2 TO BINARY FILE HEADS FROM KSTP 1 AND KPER 2

 SFR-1 SETTING BUDGET TERMS FOR KSTP 413 AND KPER 2 TO BUDGET FILE TERMS FROM KSTP 1 AND KPER 2

end timestep


start timestep kper="2" kstp="414" mode="normal"


 FMI SETTING BUDGET TERMS FOR KSTP 414 AND KPER 2 TO BUDGET FILE TERMS FROM KSTP 1 AND KPER 2

 FMI SETTING HEAD FOR KSTP 414 AND KPER 2 TO BINARY FILE HEADS FROM KSTP 1 AND KPER 2

 SFR-1 SETTING BUDGET TERMS FOR KSTP 414 AND KPER 2 TO BUDGET FILE TERMS FROM KSTP 1 AND KPER 2

end timestep


start timestep kper="2" kstp="415" mode="normal"


 FMI SETTING BUDGET TERMS FOR KSTP 415 AND KPER 2 TO BUDGET FILE TERMS FROM KSTP 1 AND KPER 2

 FMI SETTING HEAD FOR KSTP 415 AND KPER 2 TO BINARY FILE HEADS FROM KSTP 1 AND KPER 2

 SFR-1 SETTING BUDGET TERMS FOR KSTP 415 AND KPER 2 TO BUDGET FILE TERMS FROM KSTP 1 AND KPER 2

end timestep


start timestep kper="2" kstp="416" mode="normal"


 FMI SETTING BUDGET TERMS FOR KSTP 416 AND KPER 2 TO BUDGET FILE TERMS FROM KSTP 1 AND KPER 2

 FMI SETTING HEAD FOR KSTP 416 AND KPER 2 TO BINARY FILE HEADS FROM KSTP 1 AND KPER 2

 SFR-1 SETTING BUDGET TERMS FOR KSTP 416 AND KPER 2 TO BUDGET FILE TERMS FROM KSTP 1 AND KPER 2

end timestep


start timestep kper="2" kstp="417" mode="normal"


 FMI SETTING BUDGET TERMS FOR KSTP 417 AND KPER 2 TO BUDGET FILE TERMS FROM KSTP 1 AND KPER 2

 FMI SETTING HEAD FOR KSTP 417 AND KPER 2 TO BINARY FILE HEADS FROM KSTP 1 AND KPER 2

 SFR-1 SETTING BUDGET TERMS FOR KSTP 417 AND KPER 2 TO BUDGET FILE TERMS FROM KSTP 1 AND KPER 2

end timestep


start timestep kper="2" kstp="418" mode="normal"


 FMI SETTING BUDGET TERMS FOR KSTP 418 AND KPER 2 TO BUDGET FILE TERMS FROM KSTP 1 AND KPER 2

 FMI SETTING HEAD FOR KSTP 418 AND KPER 2 TO BINARY FILE HEADS FROM KSTP 1 AND KPER 2

 SFR-1 SETTING BUDGET TERMS FOR KSTP 418 AND KPER 2 TO BUDGET FILE TERMS FROM KSTP 1 AND KPER 2

end timestep


start timestep kper="2" kstp="419" mode="normal"


 FMI SETTING BUDGET TERMS FOR KSTP 419 AND KPER 2 TO BUDGET FILE TERMS FROM KSTP 1 AND KPER 2

 FMI SETTING HEAD FOR KSTP 419 AND KPER 2 TO BINARY FILE HEADS FROM KSTP 1 AND KPER 2

 SFR-1 SETTING BUDGET TERMS FOR KSTP 419 AND KPER 2 TO BUDGET FILE TERMS FROM KSTP 1 AND KPER 2

end timestep


start timestep kper="2" kstp="420" mode="normal"


 FMI SETTING BUDGET TERMS FOR KSTP 420 AND KPER 2 TO BUDGET FILE TERMS FROM KSTP 1 AND KPER 2

 FMI SETTING HEAD FOR KSTP 420 AND KPER 2 TO BINARY FILE HEADS FROM KSTP 1 AND KPER 2

 SFR-1 SETTING BUDGET TERMS FOR KSTP 420 AND KPER 2 TO BUDGET FILE TERMS FROM KSTP 1 AND KPER 2

 CONCENTRATION WILL BE SAVED ON UNIT 1024 AT END OF TIME STEP  420, STRESS PERIOD    2

end timestep


start timestep kper="2" kstp="421" mode="normal"


 FMI SETTING BUDGET TERMS FOR KSTP 421 AND KPER 2 TO BUDGET FILE TERMS FROM KSTP 1 AND KPER 2

 FMI SETTING HEAD FOR KSTP 421 AND KPER 2 TO BINARY FILE HEADS FROM KSTP 1 AND KPER 2

 SFR-1 SETTING BUDGET TERMS FOR KSTP 421 AND KPER 2 TO BUDGET FILE TERMS FROM KSTP 1 AND KPER 2

end timestep


start timestep kper="2" kstp="422" mode="normal"


 FMI SETTING BUDGET TERMS FOR KSTP 422 AND KPER 2 TO BUDGET FILE TERMS FROM KSTP 1 AND KPER 2

 FMI SETTING HEAD FOR KSTP 422 AND KPER 2 TO BINARY FILE HEADS FROM KSTP 1 AND KPER 2

 SFR-1 SETTING BUDGET TERMS FOR KSTP 422 AND KPER 2 TO BUDGET FILE TERMS FROM KSTP 1 AND KPER 2

end timestep


start timestep kper="2" kstp="423" mode="normal"


 FMI SETTING BUDGET TERMS FOR KSTP 423 AND KPER 2 TO BUDGET FILE TERMS FROM KSTP 1 AND KPER 2

 FMI SETTING HEAD FOR KSTP 423 AND KPER 2 TO BINARY FILE HEADS FROM KSTP 1 AND KPER 2

 SFR-1 SETTING BUDGET TERMS FOR KSTP 423 AND KPER 2 TO BUDGET FILE TERMS FROM KSTP 1 AND KPER 2

end timestep


start timestep kper="2" kstp="424" mode="normal"


 FMI SETTING BUDGET TERMS FOR KSTP 424 AND KPER 2 TO BUDGET FILE TERMS FROM KSTP 1 AND KPER 2

 FMI SETTING HEAD FOR KSTP 424 AND KPER 2 TO BINARY FILE HEADS FROM KSTP 1 AND KPER 2

 SFR-1 SETTING BUDGET TERMS FOR KSTP 424 AND KPER 2 TO BUDGET FILE TERMS FROM KSTP 1 AND KPER 2

end timestep


start timestep kper="2" kstp="425" mode="normal"


 FMI SETTING BUDGET TERMS FOR KSTP 425 AND KPER 2 TO BUDGET FILE TERMS FROM KSTP 1 AND KPER 2

 FMI SETTING HEAD FOR KSTP 425 AND KPER 2 TO BINARY FILE HEADS FROM KSTP 1 AND KPER 2

 SFR-1 SETTING BUDGET TERMS FOR KSTP 425 AND KPER 2 TO BUDGET FILE TERMS FROM KSTP 1 AND KPER 2

end timestep


start timestep kper="2" kstp="426" mode="normal"


 FMI SETTING BUDGET TERMS FOR KSTP 426 AND KPER 2 TO BUDGET FILE TERMS FROM KSTP 1 AND KPER 2

 FMI SETTING HEAD FOR KSTP 426 AND KPER 2 TO BINARY FILE HEADS FROM KSTP 1 AND KPER 2

 SFR-1 SETTING BUDGET TERMS FOR KSTP 426 AND KPER 2 TO BUDGET FILE TERMS FROM KSTP 1 AND KPER 2

end timestep


start timestep kper="2" kstp="427" mode="normal"


 FMI SETTING BUDGET TERMS FOR KSTP 427 AND KPER 2 TO BUDGET FILE TERMS FROM KSTP 1 AND KPER 2

 FMI SETTING HEAD FOR KSTP 427 AND KPER 2 TO BINARY FILE HEADS FROM KSTP 1 AND KPER 2

 SFR-1 SETTING BUDGET TERMS FOR KSTP 427 AND KPER 2 TO BUDGET FILE TERMS FROM KSTP 1 AND KPER 2

end timestep


start timestep kper="2" kstp="428" mode="normal"


 FMI SETTING BUDGET TERMS FOR KSTP 428 AND KPER 2 TO BUDGET FILE TERMS FROM KSTP 1 AND KPER 2

 FMI SETTING HEAD FOR KSTP 428 AND KPER 2 TO BINARY FILE HEADS FROM KSTP 1 AND KPER 2

 SFR-1 SETTING BUDGET TERMS FOR KSTP 428 AND KPER 2 TO BUDGET FILE TERMS FROM KSTP 1 AND KPER 2

end timestep


start timestep kper="2" kstp="429" mode="normal"


 FMI SETTING BUDGET TERMS FOR KSTP 429 AND KPER 2 TO BUDGET FILE TERMS FROM KSTP 1 AND KPER 2

 FMI SETTING HEAD FOR KSTP 429 AND KPER 2 TO BINARY FILE HEADS FROM KSTP 1 AND KPER 2

 SFR-1 SETTING BUDGET TERMS FOR KSTP 429 AND KPER 2 TO BUDGET FILE TERMS FROM KSTP 1 AND KPER 2

end timestep


start timestep kper="2" kstp="430" mode="normal"


 FMI SETTING BUDGET TERMS FOR KSTP 430 AND KPER 2 TO BUDGET FILE TERMS FROM KSTP 1 AND KPER 2

 FMI SETTING HEAD FOR KSTP 430 AND KPER 2 TO BINARY FILE HEADS FROM KSTP 1 AND KPER 2

 SFR-1 SETTING BUDGET TERMS FOR KSTP 430 AND KPER 2 TO BUDGET FILE TERMS FROM KSTP 1 AND KPER 2

 CONCENTRATION WILL BE SAVED ON UNIT 1024 AT END OF TIME STEP  430, STRESS PERIOD    2

end timestep


start timestep kper="2" kstp="431" mode="normal"


 FMI SETTING BUDGET TERMS FOR KSTP 431 AND KPER 2 TO BUDGET FILE TERMS FROM KSTP 1 AND KPER 2

 FMI SETTING HEAD FOR KSTP 431 AND KPER 2 TO BINARY FILE HEADS FROM KSTP 1 AND KPER 2

 SFR-1 SETTING BUDGET TERMS FOR KSTP 431 AND KPER 2 TO BUDGET FILE TERMS FROM KSTP 1 AND KPER 2

end timestep


start timestep kper="2" kstp="432" mode="normal"


 FMI SETTING BUDGET TERMS FOR KSTP 432 AND KPER 2 TO BUDGET FILE TERMS FROM KSTP 1 AND KPER 2

 FMI SETTING HEAD FOR KSTP 432 AND KPER 2 TO BINARY FILE HEADS FROM KSTP 1 AND KPER 2

 SFR-1 SETTING BUDGET TERMS FOR KSTP 432 AND KPER 2 TO BUDGET FILE TERMS FROM KSTP 1 AND KPER 2

end timestep


start timestep kper="2" kstp="433" mode="normal"


 FMI SETTING BUDGET TERMS FOR KSTP 433 AND KPER 2 TO BUDGET FILE TERMS FROM KSTP 1 AND KPER 2

 FMI SETTING HEAD FOR KSTP 433 AND KPER 2 TO BINARY FILE HEADS FROM KSTP 1 AND KPER 2

 SFR-1 SETTING BUDGET TERMS FOR KSTP 433 AND KPER 2 TO BUDGET FILE TERMS FROM KSTP 1 AND KPER 2

end timestep


start timestep kper="2" kstp="434" mode="normal"


 FMI SETTING BUDGET TERMS FOR KSTP 434 AND KPER 2 TO BUDGET FILE TERMS FROM KSTP 1 AND KPER 2

 FMI SETTING HEAD FOR KSTP 434 AND KPER 2 TO BINARY FILE HEADS FROM KSTP 1 AND KPER 2

 SFR-1 SETTING BUDGET TERMS FOR KSTP 434 AND KPER 2 TO BUDGET FILE TERMS FROM KSTP 1 AND KPER 2

end timestep


start timestep kper="2" kstp="435" mode="normal"


 FMI SETTING BUDGET TERMS FOR KSTP 435 AND KPER 2 TO BUDGET FILE TERMS FROM KSTP 1 AND KPER 2

 FMI SETTING HEAD FOR KSTP 435 AND KPER 2 TO BINARY FILE HEADS FROM KSTP 1 AND KPER 2

 SFR-1 SETTING BUDGET TERMS FOR KSTP 435 AND KPER 2 TO BUDGET FILE TERMS FROM KSTP 1 AND KPER 2

end timestep


start timestep kper="2" kstp="436" mode="normal"


 FMI SETTING BUDGET TERMS FOR KSTP 436 AND KPER 2 TO BUDGET FILE TERMS FROM KSTP 1 AND KPER 2

 FMI SETTING HEAD FOR KSTP 436 AND KPER 2 TO BINARY FILE HEADS FROM KSTP 1 AND KPER 2

 SFR-1 SETTING BUDGET TERMS FOR KSTP 436 AND KPER 2 TO BUDGET FILE TERMS FROM KSTP 1 AND KPER 2

end timestep


start timestep kper="2" kstp="437" mode="normal"


 FMI SETTING BUDGET TERMS FOR KSTP 437 AND KPER 2 TO BUDGET FILE TERMS FROM KSTP 1 AND KPER 2

 FMI SETTING HEAD FOR KSTP 437 AND KPER 2 TO BINARY FILE HEADS FROM KSTP 1 AND KPER 2

 SFR-1 SETTING BUDGET TERMS FOR KSTP 437 AND KPER 2 TO BUDGET FILE TERMS FROM KSTP 1 AND KPER 2

end timestep


start timestep kper="2" kstp="438" mode="normal"


 FMI SETTING BUDGET TERMS FOR KSTP 438 AND KPER 2 TO BUDGET FILE TERMS FROM KSTP 1 AND KPER 2

 FMI SETTING HEAD FOR KSTP 438 AND KPER 2 TO BINARY FILE HEADS FROM KSTP 1 AND KPER 2

 SFR-1 SETTING BUDGET TERMS FOR KSTP 438 AND KPER 2 TO BUDGET FILE TERMS FROM KSTP 1 AND KPER 2

end timestep


start timestep kper="2" kstp="439" mode="normal"


 FMI SETTING BUDGET TERMS FOR KSTP 439 AND KPER 2 TO BUDGET FILE TERMS FROM KSTP 1 AND KPER 2

 FMI SETTING HEAD FOR KSTP 439 AND KPER 2 TO BINARY FILE HEADS FROM KSTP 1 AND KPER 2

 SFR-1 SETTING BUDGET TERMS FOR KSTP 439 AND KPER 2 TO BUDGET FILE TERMS FROM KSTP 1 AND KPER 2

end timestep


start timestep kper="2" kstp="440" mode="normal"


 FMI SETTING BUDGET TERMS FOR KSTP 440 AND KPER 2 TO BUDGET FILE TERMS FROM KSTP 1 AND KPER 2

 FMI SETTING HEAD FOR KSTP 440 AND KPER 2 TO BINARY FILE HEADS FROM KSTP 1 AND KPER 2

 SFR-1 SETTING BUDGET TERMS FOR KSTP 440 AND KPER 2 TO BUDGET FILE TERMS FROM KSTP 1 AND KPER 2

 CONCENTRATION WILL BE SAVED ON UNIT 1024 AT END OF TIME STEP  440, STRESS PERIOD    2

end timestep


start timestep kper="2" kstp="441" mode="normal"


 FMI SETTING BUDGET TERMS FOR KSTP 441 AND KPER 2 TO BUDGET FILE TERMS FROM KSTP 1 AND KPER 2

 FMI SETTING HEAD FOR KSTP 441 AND KPER 2 TO BINARY FILE HEADS FROM KSTP 1 AND KPER 2

 SFR-1 SETTING BUDGET TERMS FOR KSTP 441 AND KPER 2 TO BUDGET FILE TERMS FROM KSTP 1 AND KPER 2

end timestep


start timestep kper="2" kstp="442" mode="normal"


 FMI SETTING BUDGET TERMS FOR KSTP 442 AND KPER 2 TO BUDGET FILE TERMS FROM KSTP 1 AND KPER 2

 FMI SETTING HEAD FOR KSTP 442 AND KPER 2 TO BINARY FILE HEADS FROM KSTP 1 AND KPER 2

 SFR-1 SETTING BUDGET TERMS FOR KSTP 442 AND KPER 2 TO BUDGET FILE TERMS FROM KSTP 1 AND KPER 2

end timestep


start timestep kper="2" kstp="443" mode="normal"


 FMI SETTING BUDGET TERMS FOR KSTP 443 AND KPER 2 TO BUDGET FILE TERMS FROM KSTP 1 AND KPER 2

 FMI SETTING HEAD FOR KSTP 443 AND KPER 2 TO BINARY FILE HEADS FROM KSTP 1 AND KPER 2

 SFR-1 SETTING BUDGET TERMS FOR KSTP 443 AND KPER 2 TO BUDGET FILE TERMS FROM KSTP 1 AND KPER 2

end timestep


start timestep kper="2" kstp="444" mode="normal"


 FMI SETTING BUDGET TERMS FOR KSTP 444 AND KPER 2 TO BUDGET FILE TERMS FROM KSTP 1 AND KPER 2

 FMI SETTING HEAD FOR KSTP 444 AND KPER 2 TO BINARY FILE HEADS FROM KSTP 1 AND KPER 2

 SFR-1 SETTING BUDGET TERMS FOR KSTP 444 AND KPER 2 TO BUDGET FILE TERMS FROM KSTP 1 AND KPER 2

end timestep


start timestep kper="2" kstp="445" mode="normal"


 FMI SETTING BUDGET TERMS FOR KSTP 445 AND KPER 2 TO BUDGET FILE TERMS FROM KSTP 1 AND KPER 2

 FMI SETTING HEAD FOR KSTP 445 AND KPER 2 TO BINARY FILE HEADS FROM KSTP 1 AND KPER 2

 SFR-1 SETTING BUDGET TERMS FOR KSTP 445 AND KPER 2 TO BUDGET FILE TERMS FROM KSTP 1 AND KPER 2

end timestep


start timestep kper="2" kstp="446" mode="normal"


 FMI SETTING BUDGET TERMS FOR KSTP 446 AND KPER 2 TO BUDGET FILE TERMS FROM KSTP 1 AND KPER 2

 FMI SETTING HEAD FOR KSTP 446 AND KPER 2 TO BINARY FILE HEADS FROM KSTP 1 AND KPER 2

 SFR-1 SETTING BUDGET TERMS FOR KSTP 446 AND KPER 2 TO BUDGET FILE TERMS FROM KSTP 1 AND KPER 2

end timestep


start timestep kper="2" kstp="447" mode="normal"


 FMI SETTING BUDGET TERMS FOR KSTP 447 AND KPER 2 TO BUDGET FILE TERMS FROM KSTP 1 AND KPER 2

 FMI SETTING HEAD FOR KSTP 447 AND KPER 2 TO BINARY FILE HEADS FROM KSTP 1 AND KPER 2

 SFR-1 SETTING BUDGET TERMS FOR KSTP 447 AND KPER 2 TO BUDGET FILE TERMS FROM KSTP 1 AND KPER 2

end timestep


start timestep kper="2" kstp="448" mode="normal"


 FMI SETTING BUDGET TERMS FOR KSTP 448 AND KPER 2 TO BUDGET FILE TERMS FROM KSTP 1 AND KPER 2

 FMI SETTING HEAD FOR KSTP 448 AND KPER 2 TO BINARY FILE HEADS FROM KSTP 1 AND KPER 2

 SFR-1 SETTING BUDGET TERMS FOR KSTP 448 AND KPER 2 TO BUDGET FILE TERMS FROM KSTP 1 AND KPER 2

end timestep


start timestep kper="2" kstp="449" mode="normal"


 FMI SETTING BUDGET TERMS FOR KSTP 449 AND KPER 2 TO BUDGET FILE TERMS FROM KSTP 1 AND KPER 2

 FMI SETTING HEAD FOR KSTP 449 AND KPER 2 TO BINARY FILE HEADS FROM KSTP 1 AND KPER 2

 SFR-1 SETTING BUDGET TERMS FOR KSTP 449 AND KPER 2 TO BUDGET FILE TERMS FROM KSTP 1 AND KPER 2

end timestep


start timestep kper="2" kstp="450" mode="normal"


 FMI SETTING BUDGET TERMS FOR KSTP 450 AND KPER 2 TO BUDGET FILE TERMS FROM KSTP 1 AND KPER 2

 FMI SETTING HEAD FOR KSTP 450 AND KPER 2 TO BINARY FILE HEADS FROM KSTP 1 AND KPER 2

 SFR-1 SETTING BUDGET TERMS FOR KSTP 450 AND KPER 2 TO BUDGET FILE TERMS FROM KSTP 1 AND KPER 2

 CONCENTRATION WILL BE SAVED ON UNIT 1024 AT END OF TIME STEP  450, STRESS PERIOD    2

end timestep


start timestep kper="2" kstp="451" mode="normal"


 FMI SETTING BUDGET TERMS FOR KSTP 451 AND KPER 2 TO BUDGET FILE TERMS FROM KSTP 1 AND KPER 2

 FMI SETTING HEAD FOR KSTP 451 AND KPER 2 TO BINARY FILE HEADS FROM KSTP 1 AND KPER 2

 SFR-1 SETTING BUDGET TERMS FOR KSTP 451 AND KPER 2 TO BUDGET FILE TERMS FROM KSTP 1 AND KPER 2

end timestep


start timestep kper="2" kstp="452" mode="normal"


 FMI SETTING BUDGET TERMS FOR KSTP 452 AND KPER 2 TO BUDGET FILE TERMS FROM KSTP 1 AND KPER 2

 FMI SETTING HEAD FOR KSTP 452 AND KPER 2 TO BINARY FILE HEADS FROM KSTP 1 AND KPER 2

 SFR-1 SETTING BUDGET TERMS FOR KSTP 452 AND KPER 2 TO BUDGET FILE TERMS FROM KSTP 1 AND KPER 2

end timestep


start timestep kper="2" kstp="453" mode="normal"


 FMI SETTING BUDGET TERMS FOR KSTP 453 AND KPER 2 TO BUDGET FILE TERMS FROM KSTP 1 AND KPER 2

 FMI SETTING HEAD FOR KSTP 453 AND KPER 2 TO BINARY FILE HEADS FROM KSTP 1 AND KPER 2

 SFR-1 SETTING BUDGET TERMS FOR KSTP 453 AND KPER 2 TO BUDGET FILE TERMS FROM KSTP 1 AND KPER 2

end timestep


start timestep kper="2" kstp="454" mode="normal"


 FMI SETTING BUDGET TERMS FOR KSTP 454 AND KPER 2 TO BUDGET FILE TERMS FROM KSTP 1 AND KPER 2

 FMI SETTING HEAD FOR KSTP 454 AND KPER 2 TO BINARY FILE HEADS FROM KSTP 1 AND KPER 2

 SFR-1 SETTING BUDGET TERMS FOR KSTP 454 AND KPER 2 TO BUDGET FILE TERMS FROM KSTP 1 AND KPER 2

end timestep


start timestep kper="2" kstp="455" mode="normal"


 FMI SETTING BUDGET TERMS FOR KSTP 455 AND KPER 2 TO BUDGET FILE TERMS FROM KSTP 1 AND KPER 2

 FMI SETTING HEAD FOR KSTP 455 AND KPER 2 TO BINARY FILE HEADS FROM KSTP 1 AND KPER 2

 SFR-1 SETTING BUDGET TERMS FOR KSTP 455 AND KPER 2 TO BUDGET FILE TERMS FROM KSTP 1 AND KPER 2

end timestep


start timestep kper="2" kstp="456" mode="normal"


 FMI SETTING BUDGET TERMS FOR KSTP 456 AND KPER 2 TO BUDGET FILE TERMS FROM KSTP 1 AND KPER 2

 FMI SETTING HEAD FOR KSTP 456 AND KPER 2 TO BINARY FILE HEADS FROM KSTP 1 AND KPER 2

 SFR-1 SETTING BUDGET TERMS FOR KSTP 456 AND KPER 2 TO BUDGET FILE TERMS FROM KSTP 1 AND KPER 2

end timestep


start timestep kper="2" kstp="457" mode="normal"


 FMI SETTING BUDGET TERMS FOR KSTP 457 AND KPER 2 TO BUDGET FILE TERMS FROM KSTP 1 AND KPER 2

 FMI SETTING HEAD FOR KSTP 457 AND KPER 2 TO BINARY FILE HEADS FROM KSTP 1 AND KPER 2

 SFR-1 SETTING BUDGET TERMS FOR KSTP 457 AND KPER 2 TO BUDGET FILE TERMS FROM KSTP 1 AND KPER 2

end timestep


start timestep kper="2" kstp="458" mode="normal"


 FMI SETTING BUDGET TERMS FOR KSTP 458 AND KPER 2 TO BUDGET FILE TERMS FROM KSTP 1 AND KPER 2

 FMI SETTING HEAD FOR KSTP 458 AND KPER 2 TO BINARY FILE HEADS FROM KSTP 1 AND KPER 2

 SFR-1 SETTING BUDGET TERMS FOR KSTP 458 AND KPER 2 TO BUDGET FILE TERMS FROM KSTP 1 AND KPER 2

end timestep


start timestep kper="2" kstp="459" mode="normal"


 FMI SETTING BUDGET TERMS FOR KSTP 459 AND KPER 2 TO BUDGET FILE TERMS FROM KSTP 1 AND KPER 2

 FMI SETTING HEAD FOR KSTP 459 AND KPER 2 TO BINARY FILE HEADS FROM KSTP 1 AND KPER 2

 SFR-1 SETTING BUDGET TERMS FOR KSTP 459 AND KPER 2 TO BUDGET FILE TERMS FROM KSTP 1 AND KPER 2

end timestep


start timestep kper="2" kstp="460" mode="normal"


 FMI SETTING BUDGET TERMS FOR KSTP 460 AND KPER 2 TO BUDGET FILE TERMS FROM KSTP 1 AND KPER 2

 FMI SETTING HEAD FOR KSTP 460 AND KPER 2 TO BINARY FILE HEADS FROM KSTP 1 AND KPER 2

 SFR-1 SETTING BUDGET TERMS FOR KSTP 460 AND KPER 2 TO BUDGET FILE TERMS FROM KSTP 1 AND KPER 2

 CONCENTRATION WILL BE SAVED ON UNIT 1024 AT END OF TIME STEP  460, STRESS PERIOD    2

end timestep


start timestep kper="2" kstp="461" mode="normal"


 FMI SETTING BUDGET TERMS FOR KSTP 461 AND KPER 2 TO BUDGET FILE TERMS FROM KSTP 1 AND KPER 2

 FMI SETTING HEAD FOR KSTP 461 AND KPER 2 TO BINARY FILE HEADS FROM KSTP 1 AND KPER 2

 SFR-1 SETTING BUDGET TERMS FOR KSTP 461 AND KPER 2 TO BUDGET FILE TERMS FROM KSTP 1 AND KPER 2

end timestep


start timestep kper="2" kstp="462" mode="normal"


 FMI SETTING BUDGET TERMS FOR KSTP 462 AND KPER 2 TO BUDGET FILE TERMS FROM KSTP 1 AND KPER 2

 FMI SETTING HEAD FOR KSTP 462 AND KPER 2 TO BINARY FILE HEADS FROM KSTP 1 AND KPER 2

 SFR-1 SETTING BUDGET TERMS FOR KSTP 462 AND KPER 2 TO BUDGET FILE TERMS FROM KSTP 1 AND KPER 2

end timestep


start timestep kper="2" kstp="463" mode="normal"


 FMI SETTING BUDGET TERMS FOR KSTP 463 AND KPER 2 TO BUDGET FILE TERMS FROM KSTP 1 AND KPER 2

 FMI SETTING HEAD FOR KSTP 463 AND KPER 2 TO BINARY FILE HEADS FROM KSTP 1 AND KPER 2

 SFR-1 SETTING BUDGET TERMS FOR KSTP 463 AND KPER 2 TO BUDGET FILE TERMS FROM KSTP 1 AND KPER 2

end timestep


start timestep kper="2" kstp="464" mode="normal"


 FMI SETTING BUDGET TERMS FOR KSTP 464 AND KPER 2 TO BUDGET FILE TERMS FROM KSTP 1 AND KPER 2

 FMI SETTING HEAD FOR KSTP 464 AND KPER 2 TO BINARY FILE HEADS FROM KSTP 1 AND KPER 2

 SFR-1 SETTING BUDGET TERMS FOR KSTP 464 AND KPER 2 TO BUDGET FILE TERMS FROM KSTP 1 AND KPER 2

end timestep


start timestep kper="2" kstp="465" mode="normal"


 FMI SETTING BUDGET TERMS FOR KSTP 465 AND KPER 2 TO BUDGET FILE TERMS FROM KSTP 1 AND KPER 2

 FMI SETTING HEAD FOR KSTP 465 AND KPER 2 TO BINARY FILE HEADS FROM KSTP 1 AND KPER 2

 SFR-1 SETTING BUDGET TERMS FOR KSTP 465 AND KPER 2 TO BUDGET FILE TERMS FROM KSTP 1 AND KPER 2

end timestep


start timestep kper="2" kstp="466" mode="normal"


 FMI SETTING BUDGET TERMS FOR KSTP 466 AND KPER 2 TO BUDGET FILE TERMS FROM KSTP 1 AND KPER 2

 FMI SETTING HEAD FOR KSTP 466 AND KPER 2 TO BINARY FILE HEADS FROM KSTP 1 AND KPER 2

 SFR-1 SETTING BUDGET TERMS FOR KSTP 466 AND KPER 2 TO BUDGET FILE TERMS FROM KSTP 1 AND KPER 2

end timestep


start timestep kper="2" kstp="467" mode="normal"


 FMI SETTING BUDGET TERMS FOR KSTP 467 AND KPER 2 TO BUDGET FILE TERMS FROM KSTP 1 AND KPER 2

 FMI SETTING HEAD FOR KSTP 467 AND KPER 2 TO BINARY FILE HEADS FROM KSTP 1 AND KPER 2

 SFR-1 SETTING BUDGET TERMS FOR KSTP 467 AND KPER 2 TO BUDGET FILE TERMS FROM KSTP 1 AND KPER 2

end timestep


start timestep kper="2" kstp="468" mode="normal"


 FMI SETTING BUDGET TERMS FOR KSTP 468 AND KPER 2 TO BUDGET FILE TERMS FROM KSTP 1 AND KPER 2

 FMI SETTING HEAD FOR KSTP 468 AND KPER 2 TO BINARY FILE HEADS FROM KSTP 1 AND KPER 2

 SFR-1 SETTING BUDGET TERMS FOR KSTP 468 AND KPER 2 TO BUDGET FILE TERMS FROM KSTP 1 AND KPER 2

end timestep


start timestep kper="2" kstp="469" mode="normal"


 FMI SETTING BUDGET TERMS FOR KSTP 469 AND KPER 2 TO BUDGET FILE TERMS FROM KSTP 1 AND KPER 2

 FMI SETTING HEAD FOR KSTP 469 AND KPER 2 TO BINARY FILE HEADS FROM KSTP 1 AND KPER 2

 SFR-1 SETTING BUDGET TERMS FOR KSTP 469 AND KPER 2 TO BUDGET FILE TERMS FROM KSTP 1 AND KPER 2

end timestep


start timestep kper="2" kstp="470" mode="normal"


 FMI SETTING BUDGET TERMS FOR KSTP 470 AND KPER 2 TO BUDGET FILE TERMS FROM KSTP 1 AND KPER 2

 FMI SETTING HEAD FOR KSTP 470 AND KPER 2 TO BINARY FILE HEADS FROM KSTP 1 AND KPER 2

 SFR-1 SETTING BUDGET TERMS FOR KSTP 470 AND KPER 2 TO BUDGET FILE TERMS FROM KSTP 1 AND KPER 2

 CONCENTRATION WILL BE SAVED ON UNIT 1024 AT END OF TIME STEP  470, STRESS PERIOD    2

end timestep


start timestep kper="2" kstp="471" mode="normal"


 FMI SETTING BUDGET TERMS FOR KSTP 471 AND KPER 2 TO BUDGET FILE TERMS FROM KSTP 1 AND KPER 2

 FMI SETTING HEAD FOR KSTP 471 AND KPER 2 TO BINARY FILE HEADS FROM KSTP 1 AND KPER 2

 SFR-1 SETTING BUDGET TERMS FOR KSTP 471 AND KPER 2 TO BUDGET FILE TERMS FROM KSTP 1 AND KPER 2

end timestep


start timestep kper="2" kstp="472" mode="normal"


 FMI SETTING BUDGET TERMS FOR KSTP 472 AND KPER 2 TO BUDGET FILE TERMS FROM KSTP 1 AND KPER 2

 FMI SETTING HEAD FOR KSTP 472 AND KPER 2 TO BINARY FILE HEADS FROM KSTP 1 AND KPER 2

 SFR-1 SETTING BUDGET TERMS FOR KSTP 472 AND KPER 2 TO BUDGET FILE TERMS FROM KSTP 1 AND KPER 2

end timestep


start timestep kper="2" kstp="473" mode="normal"


 FMI SETTING BUDGET TERMS FOR KSTP 473 AND KPER 2 TO BUDGET FILE TERMS FROM KSTP 1 AND KPER 2

 FMI SETTING HEAD FOR KSTP 473 AND KPER 2 TO BINARY FILE HEADS FROM KSTP 1 AND KPER 2

 SFR-1 SETTING BUDGET TERMS FOR KSTP 473 AND KPER 2 TO BUDGET FILE TERMS FROM KSTP 1 AND KPER 2

end timestep


start timestep kper="2" kstp="474" mode="normal"


 FMI SETTING BUDGET TERMS FOR KSTP 474 AND KPER 2 TO BUDGET FILE TERMS FROM KSTP 1 AND KPER 2

 FMI SETTING HEAD FOR KSTP 474 AND KPER 2 TO BINARY FILE HEADS FROM KSTP 1 AND KPER 2

 SFR-1 SETTING BUDGET TERMS FOR KSTP 474 AND KPER 2 TO BUDGET FILE TERMS FROM KSTP 1 AND KPER 2

end timestep


start timestep kper="2" kstp="475" mode="normal"


 FMI SETTING BUDGET TERMS FOR KSTP 475 AND KPER 2 TO BUDGET FILE TERMS FROM KSTP 1 AND KPER 2

 FMI SETTING HEAD FOR KSTP 475 AND KPER 2 TO BINARY FILE HEADS FROM KSTP 1 AND KPER 2

 SFR-1 SETTING BUDGET TERMS FOR KSTP 475 AND KPER 2 TO BUDGET FILE TERMS FROM KSTP 1 AND KPER 2

end timestep


start timestep kper="2" kstp="476" mode="normal"


 FMI SETTING BUDGET TERMS FOR KSTP 476 AND KPER 2 TO BUDGET FILE TERMS FROM KSTP 1 AND KPER 2

 FMI SETTING HEAD FOR KSTP 476 AND KPER 2 TO BINARY FILE HEADS FROM KSTP 1 AND KPER 2

 SFR-1 SETTING BUDGET TERMS FOR KSTP 476 AND KPER 2 TO BUDGET FILE TERMS FROM KSTP 1 AND KPER 2

end timestep


start timestep kper="2" kstp="477" mode="normal"


 FMI SETTING BUDGET TERMS FOR KSTP 477 AND KPER 2 TO BUDGET FILE TERMS FROM KSTP 1 AND KPER 2

 FMI SETTING HEAD FOR KSTP 477 AND KPER 2 TO BINARY FILE HEADS FROM KSTP 1 AND KPER 2

 SFR-1 SETTING BUDGET TERMS FOR KSTP 477 AND KPER 2 TO BUDGET FILE TERMS FROM KSTP 1 AND KPER 2

end timestep


start timestep kper="2" kstp="478" mode="normal"


 FMI SETTING BUDGET TERMS FOR KSTP 478 AND KPER 2 TO BUDGET FILE TERMS FROM KSTP 1 AND KPER 2

 FMI SETTING HEAD FOR KSTP 478 AND KPER 2 TO BINARY FILE HEADS FROM KSTP 1 AND KPER 2

 SFR-1 SETTING BUDGET TERMS FOR KSTP 478 AND KPER 2 TO BUDGET FILE TERMS FROM KSTP 1 AND KPER 2

end timestep


start timestep kper="2" kstp="479" mode="normal"


 FMI SETTING BUDGET TERMS FOR KSTP 479 AND KPER 2 TO BUDGET FILE TERMS FROM KSTP 1 AND KPER 2

 FMI SETTING HEAD FOR KSTP 479 AND KPER 2 TO BINARY FILE HEADS FROM KSTP 1 AND KPER 2

 SFR-1 SETTING BUDGET TERMS FOR KSTP 479 AND KPER 2 TO BUDGET FILE TERMS FROM KSTP 1 AND KPER 2

end timestep


start timestep kper="2" kstp="480" mode="normal"


 FMI SETTING BUDGET TERMS FOR KSTP 480 AND KPER 2 TO BUDGET FILE TERMS FROM KSTP 1 AND KPER 2

 FMI SETTING HEAD FOR KSTP 480 AND KPER 2 TO BINARY FILE HEADS FROM KSTP 1 AND KPER 2

 SFR-1 SETTING BUDGET TERMS FOR KSTP 480 AND KPER 2 TO BUDGET FILE TERMS FROM KSTP 1 AND KPER 2

 CONCENTRATION WILL BE SAVED ON UNIT 1024 AT END OF TIME STEP  480, STRESS PERIOD    2

end timestep


start timestep kper="2" kstp="481" mode="normal"


 FMI SETTING BUDGET TERMS FOR KSTP 481 AND KPER 2 TO BUDGET FILE TERMS FROM KSTP 1 AND KPER 2

 FMI SETTING HEAD FOR KSTP 481 AND KPER 2 TO BINARY FILE HEADS FROM KSTP 1 AND KPER 2

 SFR-1 SETTING BUDGET TERMS FOR KSTP 481 AND KPER 2 TO BUDGET FILE TERMS FROM KSTP 1 AND KPER 2

end timestep


start timestep kper="2" kstp="482" mode="normal"


 FMI SETTING BUDGET TERMS FOR KSTP 482 AND KPER 2 TO BUDGET FILE TERMS FROM KSTP 1 AND KPER 2

 FMI SETTING HEAD FOR KSTP 482 AND KPER 2 TO BINARY FILE HEADS FROM KSTP 1 AND KPER 2

 SFR-1 SETTING BUDGET TERMS FOR KSTP 482 AND KPER 2 TO BUDGET FILE TERMS FROM KSTP 1 AND KPER 2

end timestep


start timestep kper="2" kstp="483" mode="normal"


 FMI SETTING BUDGET TERMS FOR KSTP 483 AND KPER 2 TO BUDGET FILE TERMS FROM KSTP 1 AND KPER 2

 FMI SETTING HEAD FOR KSTP 483 AND KPER 2 TO BINARY FILE HEADS FROM KSTP 1 AND KPER 2

 SFR-1 SETTING BUDGET TERMS FOR KSTP 483 AND KPER 2 TO BUDGET FILE TERMS FROM KSTP 1 AND KPER 2

end timestep


start timestep kper="2" kstp="484" mode="normal"


 FMI SETTING BUDGET TERMS FOR KSTP 484 AND KPER 2 TO BUDGET FILE TERMS FROM KSTP 1 AND KPER 2

 FMI SETTING HEAD FOR KSTP 484 AND KPER 2 TO BINARY FILE HEADS FROM KSTP 1 AND KPER 2

 SFR-1 SETTING BUDGET TERMS FOR KSTP 484 AND KPER 2 TO BUDGET FILE TERMS FROM KSTP 1 AND KPER 2

end timestep


start timestep kper="2" kstp="485" mode="normal"


 FMI SETTING BUDGET TERMS FOR KSTP 485 AND KPER 2 TO BUDGET FILE TERMS FROM KSTP 1 AND KPER 2

 FMI SETTING HEAD FOR KSTP 485 AND KPER 2 TO BINARY FILE HEADS FROM KSTP 1 AND KPER 2

 SFR-1 SETTING BUDGET TERMS FOR KSTP 485 AND KPER 2 TO BUDGET FILE TERMS FROM KSTP 1 AND KPER 2

end timestep


start timestep kper="2" kstp="486" mode="normal"


 FMI SETTING BUDGET TERMS FOR KSTP 486 AND KPER 2 TO BUDGET FILE TERMS FROM KSTP 1 AND KPER 2

 FMI SETTING HEAD FOR KSTP 486 AND KPER 2 TO BINARY FILE HEADS FROM KSTP 1 AND KPER 2

 SFR-1 SETTING BUDGET TERMS FOR KSTP 486 AND KPER 2 TO BUDGET FILE TERMS FROM KSTP 1 AND KPER 2

end timestep


start timestep kper="2" kstp="487" mode="normal"


 FMI SETTING BUDGET TERMS FOR KSTP 487 AND KPER 2 TO BUDGET FILE TERMS FROM KSTP 1 AND KPER 2

 FMI SETTING HEAD FOR KSTP 487 AND KPER 2 TO BINARY FILE HEADS FROM KSTP 1 AND KPER 2

 SFR-1 SETTING BUDGET TERMS FOR KSTP 487 AND KPER 2 TO BUDGET FILE TERMS FROM KSTP 1 AND KPER 2

end timestep


start timestep kper="2" kstp="488" mode="normal"


 FMI SETTING BUDGET TERMS FOR KSTP 488 AND KPER 2 TO BUDGET FILE TERMS FROM KSTP 1 AND KPER 2

 FMI SETTING HEAD FOR KSTP 488 AND KPER 2 TO BINARY FILE HEADS FROM KSTP 1 AND KPER 2

 SFR-1 SETTING BUDGET TERMS FOR KSTP 488 AND KPER 2 TO BUDGET FILE TERMS FROM KSTP 1 AND KPER 2

end timestep


start timestep kper="2" kstp="489" mode="normal"


 FMI SETTING BUDGET TERMS FOR KSTP 489 AND KPER 2 TO BUDGET FILE TERMS FROM KSTP 1 AND KPER 2

 FMI SETTING HEAD FOR KSTP 489 AND KPER 2 TO BINARY FILE HEADS FROM KSTP 1 AND KPER 2

 SFR-1 SETTING BUDGET TERMS FOR KSTP 489 AND KPER 2 TO BUDGET FILE TERMS FROM KSTP 1 AND KPER 2

end timestep


start timestep kper="2" kstp="490" mode="normal"


 FMI SETTING BUDGET TERMS FOR KSTP 490 AND KPER 2 TO BUDGET FILE TERMS FROM KSTP 1 AND KPER 2

 FMI SETTING HEAD FOR KSTP 490 AND KPER 2 TO BINARY FILE HEADS FROM KSTP 1 AND KPER 2

 SFR-1 SETTING BUDGET TERMS FOR KSTP 490 AND KPER 2 TO BUDGET FILE TERMS FROM KSTP 1 AND KPER 2

 CONCENTRATION WILL BE SAVED ON UNIT 1024 AT END OF TIME STEP  490, STRESS PERIOD    2

end timestep


start timestep kper="2" kstp="491" mode="normal"


 FMI SETTING BUDGET TERMS FOR KSTP 491 AND KPER 2 TO BUDGET FILE TERMS FROM KSTP 1 AND KPER 2

 FMI SETTING HEAD FOR KSTP 491 AND KPER 2 TO BINARY FILE HEADS FROM KSTP 1 AND KPER 2

 SFR-1 SETTING BUDGET TERMS FOR KSTP 491 AND KPER 2 TO BUDGET FILE TERMS FROM KSTP 1 AND KPER 2

end timestep


start timestep kper="2" kstp="492" mode="normal"


 FMI SETTING BUDGET TERMS FOR KSTP 492 AND KPER 2 TO BUDGET FILE TERMS FROM KSTP 1 AND KPER 2

 FMI SETTING HEAD FOR KSTP 492 AND KPER 2 TO BINARY FILE HEADS FROM KSTP 1 AND KPER 2

 SFR-1 SETTING BUDGET TERMS FOR KSTP 492 AND KPER 2 TO BUDGET FILE TERMS FROM KSTP 1 AND KPER 2

end timestep


start timestep kper="2" kstp="493" mode="normal"


 FMI SETTING BUDGET TERMS FOR KSTP 493 AND KPER 2 TO BUDGET FILE TERMS FROM KSTP 1 AND KPER 2

 FMI SETTING HEAD FOR KSTP 493 AND KPER 2 TO BINARY FILE HEADS FROM KSTP 1 AND KPER 2

 SFR-1 SETTING BUDGET TERMS FOR KSTP 493 AND KPER 2 TO BUDGET FILE TERMS FROM KSTP 1 AND KPER 2

end timestep


start timestep kper="2" kstp="494" mode="normal"


 FMI SETTING BUDGET TERMS FOR KSTP 494 AND KPER 2 TO BUDGET FILE TERMS FROM KSTP 1 AND KPER 2

 FMI SETTING HEAD FOR KSTP 494 AND KPER 2 TO BINARY FILE HEADS FROM KSTP 1 AND KPER 2

 SFR-1 SETTING BUDGET TERMS FOR KSTP 494 AND KPER 2 TO BUDGET FILE TERMS FROM KSTP 1 AND KPER 2

end timestep


start timestep kper="2" kstp="495" mode="normal"


 FMI SETTING BUDGET TERMS FOR KSTP 495 AND KPER 2 TO BUDGET FILE TERMS FROM KSTP 1 AND KPER 2

 FMI SETTING HEAD FOR KSTP 495 AND KPER 2 TO BINARY FILE HEADS FROM KSTP 1 AND KPER 2

 SFR-1 SETTING BUDGET TERMS FOR KSTP 495 AND KPER 2 TO BUDGET FILE TERMS FROM KSTP 1 AND KPER 2

end timestep


start timestep kper="2" kstp="496" mode="normal"


 FMI SETTING BUDGET TERMS FOR KSTP 496 AND KPER 2 TO BUDGET FILE TERMS FROM KSTP 1 AND KPER 2

 FMI SETTING HEAD FOR KSTP 496 AND KPER 2 TO BINARY FILE HEADS FROM KSTP 1 AND KPER 2

 SFR-1 SETTING BUDGET TERMS FOR KSTP 496 AND KPER 2 TO BUDGET FILE TERMS FROM KSTP 1 AND KPER 2

end timestep


start timestep kper="2" kstp="497" mode="normal"


 FMI SETTING BUDGET TERMS FOR KSTP 497 AND KPER 2 TO BUDGET FILE TERMS FROM KSTP 1 AND KPER 2

 FMI SETTING HEAD FOR KSTP 497 AND KPER 2 TO BINARY FILE HEADS FROM KSTP 1 AND KPER 2

 SFR-1 SETTING BUDGET TERMS FOR KSTP 497 AND KPER 2 TO BUDGET FILE TERMS FROM KSTP 1 AND KPER 2

end timestep


start timestep kper="2" kstp="498" mode="normal"


 FMI SETTING BUDGET TERMS FOR KSTP 498 AND KPER 2 TO BUDGET FILE TERMS FROM KSTP 1 AND KPER 2

 FMI SETTING HEAD FOR KSTP 498 AND KPER 2 TO BINARY FILE HEADS FROM KSTP 1 AND KPER 2

 SFR-1 SETTING BUDGET TERMS FOR KSTP 498 AND KPER 2 TO BUDGET FILE TERMS FROM KSTP 1 AND KPER 2

end timestep


start timestep kper="2" kstp="499" mode="normal"


 FMI SETTING BUDGET TERMS FOR KSTP 499 AND KPER 2 TO BUDGET FILE TERMS FROM KSTP 1 AND KPER 2

 FMI SETTING HEAD FOR KSTP 499 AND KPER 2 TO BINARY FILE HEADS FROM KSTP 1 AND KPER 2

 SFR-1 SETTING BUDGET TERMS FOR KSTP 499 AND KPER 2 TO BUDGET FILE TERMS FROM KSTP 1 AND KPER 2

end timestep


start timestep kper="2" kstp="500" mode="normal"


 FMI SETTING BUDGET TERMS FOR KSTP 500 AND KPER 2 TO BUDGET FILE TERMS FROM KSTP 1 AND KPER 2

 FMI SETTING HEAD FOR KSTP 500 AND KPER 2 TO BINARY FILE HEADS FROM KSTP 1 AND KPER 2

 SFR-1 SETTING BUDGET TERMS FOR KSTP 500 AND KPER 2 TO BUDGET FILE TERMS FROM KSTP 1 AND KPER 2

 CONCENTRATION WILL BE SAVED ON UNIT 1024 AT END OF TIME STEP  500, STRESS PERIOD    2

end timestep


start timestep kper="2" kstp="501" mode="normal"


 FMI SETTING BUDGET TERMS FOR KSTP 501 AND KPER 2 TO BUDGET FILE TERMS FROM KSTP 1 AND KPER 2

 FMI SETTING HEAD FOR KSTP 501 AND KPER 2 TO BINARY FILE HEADS FROM KSTP 1 AND KPER 2

 SFR-1 SETTING BUDGET TERMS FOR KSTP 501 AND KPER 2 TO BUDGET FILE TERMS FROM KSTP 1 AND KPER 2

end timestep


start timestep kper="2" kstp="502" mode="normal"


 FMI SETTING BUDGET TERMS FOR KSTP 502 AND KPER 2 TO BUDGET FILE TERMS FROM KSTP 1 AND KPER 2

 FMI SETTING HEAD FOR KSTP 502 AND KPER 2 TO BINARY FILE HEADS FROM KSTP 1 AND KPER 2

 SFR-1 SETTING BUDGET TERMS FOR KSTP 502 AND KPER 2 TO BUDGET FILE TERMS FROM KSTP 1 AND KPER 2

end timestep


start timestep kper="2" kstp="503" mode="normal"


 FMI SETTING BUDGET TERMS FOR KSTP 503 AND KPER 2 TO BUDGET FILE TERMS FROM KSTP 1 AND KPER 2

 FMI SETTING HEAD FOR KSTP 503 AND KPER 2 TO BINARY FILE HEADS FROM KSTP 1 AND KPER 2

 SFR-1 SETTING BUDGET TERMS FOR KSTP 503 AND KPER 2 TO BUDGET FILE TERMS FROM KSTP 1 AND KPER 2

end timestep


start timestep kper="2" kstp="504" mode="normal"


 FMI SETTING BUDGET TERMS FOR KSTP 504 AND KPER 2 TO BUDGET FILE TERMS FROM KSTP 1 AND KPER 2

 FMI SETTING HEAD FOR KSTP 504 AND KPER 2 TO BINARY FILE HEADS FROM KSTP 1 AND KPER 2

 SFR-1 SETTING BUDGET TERMS FOR KSTP 504 AND KPER 2 TO BUDGET FILE TERMS FROM KSTP 1 AND KPER 2

end timestep


start timestep kper="2" kstp="505" mode="normal"


 FMI SETTING BUDGET TERMS FOR KSTP 505 AND KPER 2 TO BUDGET FILE TERMS FROM KSTP 1 AND KPER 2

 FMI SETTING HEAD FOR KSTP 505 AND KPER 2 TO BINARY FILE HEADS FROM KSTP 1 AND KPER 2

 SFR-1 SETTING BUDGET TERMS FOR KSTP 505 AND KPER 2 TO BUDGET FILE TERMS FROM KSTP 1 AND KPER 2

end timestep


start timestep kper="2" kstp="506" mode="normal"


 FMI SETTING BUDGET TERMS FOR KSTP 506 AND KPER 2 TO BUDGET FILE TERMS FROM KSTP 1 AND KPER 2

 FMI SETTING HEAD FOR KSTP 506 AND KPER 2 TO BINARY FILE HEADS FROM KSTP 1 AND KPER 2

 SFR-1 SETTING BUDGET TERMS FOR KSTP 506 AND KPER 2 TO BUDGET FILE TERMS FROM KSTP 1 AND KPER 2

end timestep


start timestep kper="2" kstp="507" mode="normal"


 FMI SETTING BUDGET TERMS FOR KSTP 507 AND KPER 2 TO BUDGET FILE TERMS FROM KSTP 1 AND KPER 2

 FMI SETTING HEAD FOR KSTP 507 AND KPER 2 TO BINARY FILE HEADS FROM KSTP 1 AND KPER 2

 SFR-1 SETTING BUDGET TERMS FOR KSTP 507 AND KPER 2 TO BUDGET FILE TERMS FROM KSTP 1 AND KPER 2

end timestep


start timestep kper="2" kstp="508" mode="normal"


 FMI SETTING BUDGET TERMS FOR KSTP 508 AND KPER 2 TO BUDGET FILE TERMS FROM KSTP 1 AND KPER 2

 FMI SETTING HEAD FOR KSTP 508 AND KPER 2 TO BINARY FILE HEADS FROM KSTP 1 AND KPER 2

 SFR-1 SETTING BUDGET TERMS FOR KSTP 508 AND KPER 2 TO BUDGET FILE TERMS FROM KSTP 1 AND KPER 2

end timestep


start timestep kper="2" kstp="509" mode="normal"


 FMI SETTING BUDGET TERMS FOR KSTP 509 AND KPER 2 TO BUDGET FILE TERMS FROM KSTP 1 AND KPER 2

 FMI SETTING HEAD FOR KSTP 509 AND KPER 2 TO BINARY FILE HEADS FROM KSTP 1 AND KPER 2

 SFR-1 SETTING BUDGET TERMS FOR KSTP 509 AND KPER 2 TO BUDGET FILE TERMS FROM KSTP 1 AND KPER 2

end timestep


start timestep kper="2" kstp="510" mode="normal"


 FMI SETTING BUDGET TERMS FOR KSTP 510 AND KPER 2 TO BUDGET FILE TERMS FROM KSTP 1 AND KPER 2

 FMI SETTING HEAD FOR KSTP 510 AND KPER 2 TO BINARY FILE HEADS FROM KSTP 1 AND KPER 2

 SFR-1 SETTING BUDGET TERMS FOR KSTP 510 AND KPER 2 TO BUDGET FILE TERMS FROM KSTP 1 AND KPER 2

 CONCENTRATION WILL BE SAVED ON UNIT 1024 AT END OF TIME STEP  510, STRESS PERIOD    2

end timestep


start timestep kper="2" kstp="511" mode="normal"


 FMI SETTING BUDGET TERMS FOR KSTP 511 AND KPER 2 TO BUDGET FILE TERMS FROM KSTP 1 AND KPER 2

 FMI SETTING HEAD FOR KSTP 511 AND KPER 2 TO BINARY FILE HEADS FROM KSTP 1 AND KPER 2

 SFR-1 SETTING BUDGET TERMS FOR KSTP 511 AND KPER 2 TO BUDGET FILE TERMS FROM KSTP 1 AND KPER 2

end timestep


start timestep kper="2" kstp="512" mode="normal"


 FMI SETTING BUDGET TERMS FOR KSTP 512 AND KPER 2 TO BUDGET FILE TERMS FROM KSTP 1 AND KPER 2

 FMI SETTING HEAD FOR KSTP 512 AND KPER 2 TO BINARY FILE HEADS FROM KSTP 1 AND KPER 2

 SFR-1 SETTING BUDGET TERMS FOR KSTP 512 AND KPER 2 TO BUDGET FILE TERMS FROM KSTP 1 AND KPER 2

end timestep


start timestep kper="2" kstp="513" mode="normal"


 FMI SETTING BUDGET TERMS FOR KSTP 513 AND KPER 2 TO BUDGET FILE TERMS FROM KSTP 1 AND KPER 2

 FMI SETTING HEAD FOR KSTP 513 AND KPER 2 TO BINARY FILE HEADS FROM KSTP 1 AND KPER 2

 SFR-1 SETTING BUDGET TERMS FOR KSTP 513 AND KPER 2 TO BUDGET FILE TERMS FROM KSTP 1 AND KPER 2

end timestep


start timestep kper="2" kstp="514" mode="normal"


 FMI SETTING BUDGET TERMS FOR KSTP 514 AND KPER 2 TO BUDGET FILE TERMS FROM KSTP 1 AND KPER 2

 FMI SETTING HEAD FOR KSTP 514 AND KPER 2 TO BINARY FILE HEADS FROM KSTP 1 AND KPER 2

 SFR-1 SETTING BUDGET TERMS FOR KSTP 514 AND KPER 2 TO BUDGET FILE TERMS FROM KSTP 1 AND KPER 2

end timestep


start timestep kper="2" kstp="515" mode="normal"


 FMI SETTING BUDGET TERMS FOR KSTP 515 AND KPER 2 TO BUDGET FILE TERMS FROM KSTP 1 AND KPER 2

 FMI SETTING HEAD FOR KSTP 515 AND KPER 2 TO BINARY FILE HEADS FROM KSTP 1 AND KPER 2

 SFR-1 SETTING BUDGET TERMS FOR KSTP 515 AND KPER 2 TO BUDGET FILE TERMS FROM KSTP 1 AND KPER 2

end timestep


start timestep kper="2" kstp="516" mode="normal"


 FMI SETTING BUDGET TERMS FOR KSTP 516 AND KPER 2 TO BUDGET FILE TERMS FROM KSTP 1 AND KPER 2

 FMI SETTING HEAD FOR KSTP 516 AND KPER 2 TO BINARY FILE HEADS FROM KSTP 1 AND KPER 2

 SFR-1 SETTING BUDGET TERMS FOR KSTP 516 AND KPER 2 TO BUDGET FILE TERMS FROM KSTP 1 AND KPER 2

end timestep


start timestep kper="2" kstp="517" mode="normal"


 FMI SETTING BUDGET TERMS FOR KSTP 517 AND KPER 2 TO BUDGET FILE TERMS FROM KSTP 1 AND KPER 2

 FMI SETTING HEAD FOR KSTP 517 AND KPER 2 TO BINARY FILE HEADS FROM KSTP 1 AND KPER 2

 SFR-1 SETTING BUDGET TERMS FOR KSTP 517 AND KPER 2 TO BUDGET FILE TERMS FROM KSTP 1 AND KPER 2

end timestep


start timestep kper="2" kstp="518" mode="normal"


 FMI SETTING BUDGET TERMS FOR KSTP 518 AND KPER 2 TO BUDGET FILE TERMS FROM KSTP 1 AND KPER 2

 FMI SETTING HEAD FOR KSTP 518 AND KPER 2 TO BINARY FILE HEADS FROM KSTP 1 AND KPER 2

 SFR-1 SETTING BUDGET TERMS FOR KSTP 518 AND KPER 2 TO BUDGET FILE TERMS FROM KSTP 1 AND KPER 2

end timestep


start timestep kper="2" kstp="519" mode="normal"


 FMI SETTING BUDGET TERMS FOR KSTP 519 AND KPER 2 TO BUDGET FILE TERMS FROM KSTP 1 AND KPER 2

 FMI SETTING HEAD FOR KSTP 519 AND KPER 2 TO BINARY FILE HEADS FROM KSTP 1 AND KPER 2

 SFR-1 SETTING BUDGET TERMS FOR KSTP 519 AND KPER 2 TO BUDGET FILE TERMS FROM KSTP 1 AND KPER 2

end timestep


start timestep kper="2" kstp="520" mode="normal"


 FMI SETTING BUDGET TERMS FOR KSTP 520 AND KPER 2 TO BUDGET FILE TERMS FROM KSTP 1 AND KPER 2

 FMI SETTING HEAD FOR KSTP 520 AND KPER 2 TO BINARY FILE HEADS FROM KSTP 1 AND KPER 2

 SFR-1 SETTING BUDGET TERMS FOR KSTP 520 AND KPER 2 TO BUDGET FILE TERMS FROM KSTP 1 AND KPER 2

 CONCENTRATION WILL BE SAVED ON UNIT 1024 AT END OF TIME STEP  520, STRESS PERIOD    2

end timestep


start timestep kper="2" kstp="521" mode="normal"


 FMI SETTING BUDGET TERMS FOR KSTP 521 AND KPER 2 TO BUDGET FILE TERMS FROM KSTP 1 AND KPER 2

 FMI SETTING HEAD FOR KSTP 521 AND KPER 2 TO BINARY FILE HEADS FROM KSTP 1 AND KPER 2

 SFR-1 SETTING BUDGET TERMS FOR KSTP 521 AND KPER 2 TO BUDGET FILE TERMS FROM KSTP 1 AND KPER 2

end timestep


start timestep kper="2" kstp="522" mode="normal"


 FMI SETTING BUDGET TERMS FOR KSTP 522 AND KPER 2 TO BUDGET FILE TERMS FROM KSTP 1 AND KPER 2

 FMI SETTING HEAD FOR KSTP 522 AND KPER 2 TO BINARY FILE HEADS FROM KSTP 1 AND KPER 2

 SFR-1 SETTING BUDGET TERMS FOR KSTP 522 AND KPER 2 TO BUDGET FILE TERMS FROM KSTP 1 AND KPER 2

end timestep


start timestep kper="2" kstp="523" mode="normal"


 FMI SETTING BUDGET TERMS FOR KSTP 523 AND KPER 2 TO BUDGET FILE TERMS FROM KSTP 1 AND KPER 2

 FMI SETTING HEAD FOR KSTP 523 AND KPER 2 TO BINARY FILE HEADS FROM KSTP 1 AND KPER 2

 SFR-1 SETTING BUDGET TERMS FOR KSTP 523 AND KPER 2 TO BUDGET FILE TERMS FROM KSTP 1 AND KPER 2

end timestep


start timestep kper="2" kstp="524" mode="normal"


 FMI SETTING BUDGET TERMS FOR KSTP 524 AND KPER 2 TO BUDGET FILE TERMS FROM KSTP 1 AND KPER 2

 FMI SETTING HEAD FOR KSTP 524 AND KPER 2 TO BINARY FILE HEADS FROM KSTP 1 AND KPER 2

 SFR-1 SETTING BUDGET TERMS FOR KSTP 524 AND KPER 2 TO BUDGET FILE TERMS FROM KSTP 1 AND KPER 2

end timestep


start timestep kper="2" kstp="525" mode="normal"


 FMI SETTING BUDGET TERMS FOR KSTP 525 AND KPER 2 TO BUDGET FILE TERMS FROM KSTP 1 AND KPER 2

 FMI SETTING HEAD FOR KSTP 525 AND KPER 2 TO BINARY FILE HEADS FROM KSTP 1 AND KPER 2

 SFR-1 SETTING BUDGET TERMS FOR KSTP 525 AND KPER 2 TO BUDGET FILE TERMS FROM KSTP 1 AND KPER 2

end timestep


start timestep kper="2" kstp="526" mode="normal"


 FMI SETTING BUDGET TERMS FOR KSTP 526 AND KPER 2 TO BUDGET FILE TERMS FROM KSTP 1 AND KPER 2

 FMI SETTING HEAD FOR KSTP 526 AND KPER 2 TO BINARY FILE HEADS FROM KSTP 1 AND KPER 2

 SFR-1 SETTING BUDGET TERMS FOR KSTP 526 AND KPER 2 TO BUDGET FILE TERMS FROM KSTP 1 AND KPER 2

end timestep


start timestep kper="2" kstp="527" mode="normal"


 FMI SETTING BUDGET TERMS FOR KSTP 527 AND KPER 2 TO BUDGET FILE TERMS FROM KSTP 1 AND KPER 2

 FMI SETTING HEAD FOR KSTP 527 AND KPER 2 TO BINARY FILE HEADS FROM KSTP 1 AND KPER 2

 SFR-1 SETTING BUDGET TERMS FOR KSTP 527 AND KPER 2 TO BUDGET FILE TERMS FROM KSTP 1 AND KPER 2

end timestep


start timestep kper="2" kstp="528" mode="normal"


 FMI SETTING BUDGET TERMS FOR KSTP 528 AND KPER 2 TO BUDGET FILE TERMS FROM KSTP 1 AND KPER 2

 FMI SETTING HEAD FOR KSTP 528 AND KPER 2 TO BINARY FILE HEADS FROM KSTP 1 AND KPER 2

 SFR-1 SETTING BUDGET TERMS FOR KSTP 528 AND KPER 2 TO BUDGET FILE TERMS FROM KSTP 1 AND KPER 2

end timestep


start timestep kper="2" kstp="529" mode="normal"


 FMI SETTING BUDGET TERMS FOR KSTP 529 AND KPER 2 TO BUDGET FILE TERMS FROM KSTP 1 AND KPER 2

 FMI SETTING HEAD FOR KSTP 529 AND KPER 2 TO BINARY FILE HEADS FROM KSTP 1 AND KPER 2

 SFR-1 SETTING BUDGET TERMS FOR KSTP 529 AND KPER 2 TO BUDGET FILE TERMS FROM KSTP 1 AND KPER 2

end timestep


start timestep kper="2" kstp="530" mode="normal"


 FMI SETTING BUDGET TERMS FOR KSTP 530 AND KPER 2 TO BUDGET FILE TERMS FROM KSTP 1 AND KPER 2

 FMI SETTING HEAD FOR KSTP 530 AND KPER 2 TO BINARY FILE HEADS FROM KSTP 1 AND KPER 2

 SFR-1 SETTING BUDGET TERMS FOR KSTP 530 AND KPER 2 TO BUDGET FILE TERMS FROM KSTP 1 AND KPER 2

 CONCENTRATION WILL BE SAVED ON UNIT 1024 AT END OF TIME STEP  530, STRESS PERIOD    2

end timestep


start timestep kper="2" kstp="531" mode="normal"


 FMI SETTING BUDGET TERMS FOR KSTP 531 AND KPER 2 TO BUDGET FILE TERMS FROM KSTP 1 AND KPER 2

 FMI SETTING HEAD FOR KSTP 531 AND KPER 2 TO BINARY FILE HEADS FROM KSTP 1 AND KPER 2

 SFR-1 SETTING BUDGET TERMS FOR KSTP 531 AND KPER 2 TO BUDGET FILE TERMS FROM KSTP 1 AND KPER 2

end timestep


start timestep kper="2" kstp="532" mode="normal"


 FMI SETTING BUDGET TERMS FOR KSTP 532 AND KPER 2 TO BUDGET FILE TERMS FROM KSTP 1 AND KPER 2

 FMI SETTING HEAD FOR KSTP 532 AND KPER 2 TO BINARY FILE HEADS FROM KSTP 1 AND KPER 2

 SFR-1 SETTING BUDGET TERMS FOR KSTP 532 AND KPER 2 TO BUDGET FILE TERMS FROM KSTP 1 AND KPER 2

end timestep


start timestep kper="2" kstp="533" mode="normal"


 FMI SETTING BUDGET TERMS FOR KSTP 533 AND KPER 2 TO BUDGET FILE TERMS FROM KSTP 1 AND KPER 2

 FMI SETTING HEAD FOR KSTP 533 AND KPER 2 TO BINARY FILE HEADS FROM KSTP 1 AND KPER 2

 SFR-1 SETTING BUDGET TERMS FOR KSTP 533 AND KPER 2 TO BUDGET FILE TERMS FROM KSTP 1 AND KPER 2

end timestep


start timestep kper="2" kstp="534" mode="normal"


 FMI SETTING BUDGET TERMS FOR KSTP 534 AND KPER 2 TO BUDGET FILE TERMS FROM KSTP 1 AND KPER 2

 FMI SETTING HEAD FOR KSTP 534 AND KPER 2 TO BINARY FILE HEADS FROM KSTP 1 AND KPER 2

 SFR-1 SETTING BUDGET TERMS FOR KSTP 534 AND KPER 2 TO BUDGET FILE TERMS FROM KSTP 1 AND KPER 2

end timestep


start timestep kper="2" kstp="535" mode="normal"


 FMI SETTING BUDGET TERMS FOR KSTP 535 AND KPER 2 TO BUDGET FILE TERMS FROM KSTP 1 AND KPER 2

 FMI SETTING HEAD FOR KSTP 535 AND KPER 2 TO BINARY FILE HEADS FROM KSTP 1 AND KPER 2

 SFR-1 SETTING BUDGET TERMS FOR KSTP 535 AND KPER 2 TO BUDGET FILE TERMS FROM KSTP 1 AND KPER 2

end timestep


start timestep kper="2" kstp="536" mode="normal"


 FMI SETTING BUDGET TERMS FOR KSTP 536 AND KPER 2 TO BUDGET FILE TERMS FROM KSTP 1 AND KPER 2

 FMI SETTING HEAD FOR KSTP 536 AND KPER 2 TO BINARY FILE HEADS FROM KSTP 1 AND KPER 2

 SFR-1 SETTING BUDGET TERMS FOR KSTP 536 AND KPER 2 TO BUDGET FILE TERMS FROM KSTP 1 AND KPER 2

end timestep


start timestep kper="2" kstp="537" mode="normal"


 FMI SETTING BUDGET TERMS FOR KSTP 537 AND KPER 2 TO BUDGET FILE TERMS FROM KSTP 1 AND KPER 2

 FMI SETTING HEAD FOR KSTP 537 AND KPER 2 TO BINARY FILE HEADS FROM KSTP 1 AND KPER 2

 SFR-1 SETTING BUDGET TERMS FOR KSTP 537 AND KPER 2 TO BUDGET FILE TERMS FROM KSTP 1 AND KPER 2

end timestep


start timestep kper="2" kstp="538" mode="normal"


 FMI SETTING BUDGET TERMS FOR KSTP 538 AND KPER 2 TO BUDGET FILE TERMS FROM KSTP 1 AND KPER 2

 FMI SETTING HEAD FOR KSTP 538 AND KPER 2 TO BINARY FILE HEADS FROM KSTP 1 AND KPER 2

 SFR-1 SETTING BUDGET TERMS FOR KSTP 538 AND KPER 2 TO BUDGET FILE TERMS FROM KSTP 1 AND KPER 2

end timestep


start timestep kper="2" kstp="539" mode="normal"


 FMI SETTING BUDGET TERMS FOR KSTP 539 AND KPER 2 TO BUDGET FILE TERMS FROM KSTP 1 AND KPER 2

 FMI SETTING HEAD FOR KSTP 539 AND KPER 2 TO BINARY FILE HEADS FROM KSTP 1 AND KPER 2

 SFR-1 SETTING BUDGET TERMS FOR KSTP 539 AND KPER 2 TO BUDGET FILE TERMS FROM KSTP 1 AND KPER 2

end timestep


start timestep kper="2" kstp="540" mode="normal"


 FMI SETTING BUDGET TERMS FOR KSTP 540 AND KPER 2 TO BUDGET FILE TERMS FROM KSTP 1 AND KPER 2

 FMI SETTING HEAD FOR KSTP 540 AND KPER 2 TO BINARY FILE HEADS FROM KSTP 1 AND KPER 2

 SFR-1 SETTING BUDGET TERMS FOR KSTP 540 AND KPER 2 TO BUDGET FILE TERMS FROM KSTP 1 AND KPER 2

 CONCENTRATION WILL BE SAVED ON UNIT 1024 AT END OF TIME STEP  540, STRESS PERIOD    2

end timestep


start timestep kper="2" kstp="541" mode="normal"


 FMI SETTING BUDGET TERMS FOR KSTP 541 AND KPER 2 TO BUDGET FILE TERMS FROM KSTP 1 AND KPER 2

 FMI SETTING HEAD FOR KSTP 541 AND KPER 2 TO BINARY FILE HEADS FROM KSTP 1 AND KPER 2

 SFR-1 SETTING BUDGET TERMS FOR KSTP 541 AND KPER 2 TO BUDGET FILE TERMS FROM KSTP 1 AND KPER 2

end timestep


start timestep kper="2" kstp="542" mode="normal"


 FMI SETTING BUDGET TERMS FOR KSTP 542 AND KPER 2 TO BUDGET FILE TERMS FROM KSTP 1 AND KPER 2

 FMI SETTING HEAD FOR KSTP 542 AND KPER 2 TO BINARY FILE HEADS FROM KSTP 1 AND KPER 2

 SFR-1 SETTING BUDGET TERMS FOR KSTP 542 AND KPER 2 TO BUDGET FILE TERMS FROM KSTP 1 AND KPER 2

end timestep


start timestep kper="2" kstp="543" mode="normal"


 FMI SETTING BUDGET TERMS FOR KSTP 543 AND KPER 2 TO BUDGET FILE TERMS FROM KSTP 1 AND KPER 2

 FMI SETTING HEAD FOR KSTP 543 AND KPER 2 TO BINARY FILE HEADS FROM KSTP 1 AND KPER 2

 SFR-1 SETTING BUDGET TERMS FOR KSTP 543 AND KPER 2 TO BUDGET FILE TERMS FROM KSTP 1 AND KPER 2

end timestep


start timestep kper="2" kstp="544" mode="normal"


 FMI SETTING BUDGET TERMS FOR KSTP 544 AND KPER 2 TO BUDGET FILE TERMS FROM KSTP 1 AND KPER 2

 FMI SETTING HEAD FOR KSTP 544 AND KPER 2 TO BINARY FILE HEADS FROM KSTP 1 AND KPER 2

 SFR-1 SETTING BUDGET TERMS FOR KSTP 544 AND KPER 2 TO BUDGET FILE TERMS FROM KSTP 1 AND KPER 2

end timestep


start timestep kper="2" kstp="545" mode="normal"


 FMI SETTING BUDGET TERMS FOR KSTP 545 AND KPER 2 TO BUDGET FILE TERMS FROM KSTP 1 AND KPER 2

 FMI SETTING HEAD FOR KSTP 545 AND KPER 2 TO BINARY FILE HEADS FROM KSTP 1 AND KPER 2

 SFR-1 SETTING BUDGET TERMS FOR KSTP 545 AND KPER 2 TO BUDGET FILE TERMS FROM KSTP 1 AND KPER 2

end timestep


start timestep kper="2" kstp="546" mode="normal"


 FMI SETTING BUDGET TERMS FOR KSTP 546 AND KPER 2 TO BUDGET FILE TERMS FROM KSTP 1 AND KPER 2

 FMI SETTING HEAD FOR KSTP 546 AND KPER 2 TO BINARY FILE HEADS FROM KSTP 1 AND KPER 2

 SFR-1 SETTING BUDGET TERMS FOR KSTP 546 AND KPER 2 TO BUDGET FILE TERMS FROM KSTP 1 AND KPER 2

end timestep


start timestep kper="2" kstp="547" mode="normal"


 FMI SETTING BUDGET TERMS FOR KSTP 547 AND KPER 2 TO BUDGET FILE TERMS FROM KSTP 1 AND KPER 2

 FMI SETTING HEAD FOR KSTP 547 AND KPER 2 TO BINARY FILE HEADS FROM KSTP 1 AND KPER 2

 SFR-1 SETTING BUDGET TERMS FOR KSTP 547 AND KPER 2 TO BUDGET FILE TERMS FROM KSTP 1 AND KPER 2

end timestep


start timestep kper="2" kstp="548" mode="normal"


 FMI SETTING BUDGET TERMS FOR KSTP 548 AND KPER 2 TO BUDGET FILE TERMS FROM KSTP 1 AND KPER 2

 FMI SETTING HEAD FOR KSTP 548 AND KPER 2 TO BINARY FILE HEADS FROM KSTP 1 AND KPER 2

 SFR-1 SETTING BUDGET TERMS FOR KSTP 548 AND KPER 2 TO BUDGET FILE TERMS FROM KSTP 1 AND KPER 2

end timestep


start timestep kper="2" kstp="549" mode="normal"


 FMI SETTING BUDGET TERMS FOR KSTP 549 AND KPER 2 TO BUDGET FILE TERMS FROM KSTP 1 AND KPER 2

 FMI SETTING HEAD FOR KSTP 549 AND KPER 2 TO BINARY FILE HEADS FROM KSTP 1 AND KPER 2

 SFR-1 SETTING BUDGET TERMS FOR KSTP 549 AND KPER 2 TO BUDGET FILE TERMS FROM KSTP 1 AND KPER 2

end timestep


start timestep kper="2" kstp="550" mode="normal"


 FMI SETTING BUDGET TERMS FOR KSTP 550 AND KPER 2 TO BUDGET FILE TERMS FROM KSTP 1 AND KPER 2

 FMI SETTING HEAD FOR KSTP 550 AND KPER 2 TO BINARY FILE HEADS FROM KSTP 1 AND KPER 2

 SFR-1 SETTING BUDGET TERMS FOR KSTP 550 AND KPER 2 TO BUDGET FILE TERMS FROM KSTP 1 AND KPER 2

 CONCENTRATION WILL BE SAVED ON UNIT 1024 AT END OF TIME STEP  550, STRESS PERIOD    2

end timestep


start timestep kper="2" kstp="551" mode="normal"


 FMI SETTING BUDGET TERMS FOR KSTP 551 AND KPER 2 TO BUDGET FILE TERMS FROM KSTP 1 AND KPER 2

 FMI SETTING HEAD FOR KSTP 551 AND KPER 2 TO BINARY FILE HEADS FROM KSTP 1 AND KPER 2

 SFR-1 SETTING BUDGET TERMS FOR KSTP 551 AND KPER 2 TO BUDGET FILE TERMS FROM KSTP 1 AND KPER 2

end timestep


start timestep kper="2" kstp="552" mode="normal"


 FMI SETTING BUDGET TERMS FOR KSTP 552 AND KPER 2 TO BUDGET FILE TERMS FROM KSTP 1 AND KPER 2

 FMI SETTING HEAD FOR KSTP 552 AND KPER 2 TO BINARY FILE HEADS FROM KSTP 1 AND KPER 2

 SFR-1 SETTING BUDGET TERMS FOR KSTP 552 AND KPER 2 TO BUDGET FILE TERMS FROM KSTP 1 AND KPER 2

end timestep


start timestep kper="2" kstp="553" mode="normal"


 FMI SETTING BUDGET TERMS FOR KSTP 553 AND KPER 2 TO BUDGET FILE TERMS FROM KSTP 1 AND KPER 2

 FMI SETTING HEAD FOR KSTP 553 AND KPER 2 TO BINARY FILE HEADS FROM KSTP 1 AND KPER 2

 SFR-1 SETTING BUDGET TERMS FOR KSTP 553 AND KPER 2 TO BUDGET FILE TERMS FROM KSTP 1 AND KPER 2

end timestep


start timestep kper="2" kstp="554" mode="normal"


 FMI SETTING BUDGET TERMS FOR KSTP 554 AND KPER 2 TO BUDGET FILE TERMS FROM KSTP 1 AND KPER 2

 FMI SETTING HEAD FOR KSTP 554 AND KPER 2 TO BINARY FILE HEADS FROM KSTP 1 AND KPER 2

 SFR-1 SETTING BUDGET TERMS FOR KSTP 554 AND KPER 2 TO BUDGET FILE TERMS FROM KSTP 1 AND KPER 2

end timestep


start timestep kper="2" kstp="555" mode="normal"


 FMI SETTING BUDGET TERMS FOR KSTP 555 AND KPER 2 TO BUDGET FILE TERMS FROM KSTP 1 AND KPER 2

 FMI SETTING HEAD FOR KSTP 555 AND KPER 2 TO BINARY FILE HEADS FROM KSTP 1 AND KPER 2

 SFR-1 SETTING BUDGET TERMS FOR KSTP 555 AND KPER 2 TO BUDGET FILE TERMS FROM KSTP 1 AND KPER 2

end timestep


start timestep kper="2" kstp="556" mode="normal"


 FMI SETTING BUDGET TERMS FOR KSTP 556 AND KPER 2 TO BUDGET FILE TERMS FROM KSTP 1 AND KPER 2

 FMI SETTING HEAD FOR KSTP 556 AND KPER 2 TO BINARY FILE HEADS FROM KSTP 1 AND KPER 2

 SFR-1 SETTING BUDGET TERMS FOR KSTP 556 AND KPER 2 TO BUDGET FILE TERMS FROM KSTP 1 AND KPER 2

end timestep


start timestep kper="2" kstp="557" mode="normal"


 FMI SETTING BUDGET TERMS FOR KSTP 557 AND KPER 2 TO BUDGET FILE TERMS FROM KSTP 1 AND KPER 2

 FMI SETTING HEAD FOR KSTP 557 AND KPER 2 TO BINARY FILE HEADS FROM KSTP 1 AND KPER 2

 SFR-1 SETTING BUDGET TERMS FOR KSTP 557 AND KPER 2 TO BUDGET FILE TERMS FROM KSTP 1 AND KPER 2

end timestep


start timestep kper="2" kstp="558" mode="normal"


 FMI SETTING BUDGET TERMS FOR KSTP 558 AND KPER 2 TO BUDGET FILE TERMS FROM KSTP 1 AND KPER 2

 FMI SETTING HEAD FOR KSTP 558 AND KPER 2 TO BINARY FILE HEADS FROM KSTP 1 AND KPER 2

 SFR-1 SETTING BUDGET TERMS FOR KSTP 558 AND KPER 2 TO BUDGET FILE TERMS FROM KSTP 1 AND KPER 2

end timestep


start timestep kper="2" kstp="559" mode="normal"


 FMI SETTING BUDGET TERMS FOR KSTP 559 AND KPER 2 TO BUDGET FILE TERMS FROM KSTP 1 AND KPER 2

 FMI SETTING HEAD FOR KSTP 559 AND KPER 2 TO BINARY FILE HEADS FROM KSTP 1 AND KPER 2

 SFR-1 SETTING BUDGET TERMS FOR KSTP 559 AND KPER 2 TO BUDGET FILE TERMS FROM KSTP 1 AND KPER 2

end timestep


start timestep kper="2" kstp="560" mode="normal"


 FMI SETTING BUDGET TERMS FOR KSTP 560 AND KPER 2 TO BUDGET FILE TERMS FROM KSTP 1 AND KPER 2

 FMI SETTING HEAD FOR KSTP 560 AND KPER 2 TO BINARY FILE HEADS FROM KSTP 1 AND KPER 2

 SFR-1 SETTING BUDGET TERMS FOR KSTP 560 AND KPER 2 TO BUDGET FILE TERMS FROM KSTP 1 AND KPER 2

 CONCENTRATION WILL BE SAVED ON UNIT 1024 AT END OF TIME STEP  560, STRESS PERIOD    2

end timestep


start timestep kper="2" kstp="561" mode="normal"


 FMI SETTING BUDGET TERMS FOR KSTP 561 AND KPER 2 TO BUDGET FILE TERMS FROM KSTP 1 AND KPER 2

 FMI SETTING HEAD FOR KSTP 561 AND KPER 2 TO BINARY FILE HEADS FROM KSTP 1 AND KPER 2

 SFR-1 SETTING BUDGET TERMS FOR KSTP 561 AND KPER 2 TO BUDGET FILE TERMS FROM KSTP 1 AND KPER 2

end timestep


start timestep kper="2" kstp="562" mode="normal"


 FMI SETTING BUDGET TERMS FOR KSTP 562 AND KPER 2 TO BUDGET FILE TERMS FROM KSTP 1 AND KPER 2

 FMI SETTING HEAD FOR KSTP 562 AND KPER 2 TO BINARY FILE HEADS FROM KSTP 1 AND KPER 2

 SFR-1 SETTING BUDGET TERMS FOR KSTP 562 AND KPER 2 TO BUDGET FILE TERMS FROM KSTP 1 AND KPER 2

end timestep


start timestep kper="2" kstp="563" mode="normal"


 FMI SETTING BUDGET TERMS FOR KSTP 563 AND KPER 2 TO BUDGET FILE TERMS FROM KSTP 1 AND KPER 2

 FMI SETTING HEAD FOR KSTP 563 AND KPER 2 TO BINARY FILE HEADS FROM KSTP 1 AND KPER 2

 SFR-1 SETTING BUDGET TERMS FOR KSTP 563 AND KPER 2 TO BUDGET FILE TERMS FROM KSTP 1 AND KPER 2

end timestep


start timestep kper="2" kstp="564" mode="normal"


 FMI SETTING BUDGET TERMS FOR KSTP 564 AND KPER 2 TO BUDGET FILE TERMS FROM KSTP 1 AND KPER 2

 FMI SETTING HEAD FOR KSTP 564 AND KPER 2 TO BINARY FILE HEADS FROM KSTP 1 AND KPER 2

 SFR-1 SETTING BUDGET TERMS FOR KSTP 564 AND KPER 2 TO BUDGET FILE TERMS FROM KSTP 1 AND KPER 2

end timestep


start timestep kper="2" kstp="565" mode="normal"


 FMI SETTING BUDGET TERMS FOR KSTP 565 AND KPER 2 TO BUDGET FILE TERMS FROM KSTP 1 AND KPER 2

 FMI SETTING HEAD FOR KSTP 565 AND KPER 2 TO BINARY FILE HEADS FROM KSTP 1 AND KPER 2

 SFR-1 SETTING BUDGET TERMS FOR KSTP 565 AND KPER 2 TO BUDGET FILE TERMS FROM KSTP 1 AND KPER 2

end timestep


start timestep kper="2" kstp="566" mode="normal"


 FMI SETTING BUDGET TERMS FOR KSTP 566 AND KPER 2 TO BUDGET FILE TERMS FROM KSTP 1 AND KPER 2

 FMI SETTING HEAD FOR KSTP 566 AND KPER 2 TO BINARY FILE HEADS FROM KSTP 1 AND KPER 2

 SFR-1 SETTING BUDGET TERMS FOR KSTP 566 AND KPER 2 TO BUDGET FILE TERMS FROM KSTP 1 AND KPER 2

end timestep


start timestep kper="2" kstp="567" mode="normal"


 FMI SETTING BUDGET TERMS FOR KSTP 567 AND KPER 2 TO BUDGET FILE TERMS FROM KSTP 1 AND KPER 2

 FMI SETTING HEAD FOR KSTP 567 AND KPER 2 TO BINARY FILE HEADS FROM KSTP 1 AND KPER 2

 SFR-1 SETTING BUDGET TERMS FOR KSTP 567 AND KPER 2 TO BUDGET FILE TERMS FROM KSTP 1 AND KPER 2

end timestep


start timestep kper="2" kstp="568" mode="normal"


 FMI SETTING BUDGET TERMS FOR KSTP 568 AND KPER 2 TO BUDGET FILE TERMS FROM KSTP 1 AND KPER 2

 FMI SETTING HEAD FOR KSTP 568 AND KPER 2 TO BINARY FILE HEADS FROM KSTP 1 AND KPER 2

 SFR-1 SETTING BUDGET TERMS FOR KSTP 568 AND KPER 2 TO BUDGET FILE TERMS FROM KSTP 1 AND KPER 2

end timestep


start timestep kper="2" kstp="569" mode="normal"


 FMI SETTING BUDGET TERMS FOR KSTP 569 AND KPER 2 TO BUDGET FILE TERMS FROM KSTP 1 AND KPER 2

 FMI SETTING HEAD FOR KSTP 569 AND KPER 2 TO BINARY FILE HEADS FROM KSTP 1 AND KPER 2

 SFR-1 SETTING BUDGET TERMS FOR KSTP 569 AND KPER 2 TO BUDGET FILE TERMS FROM KSTP 1 AND KPER 2

end timestep


start timestep kper="2" kstp="570" mode="normal"


 FMI SETTING BUDGET TERMS FOR KSTP 570 AND KPER 2 TO BUDGET FILE TERMS FROM KSTP 1 AND KPER 2

 FMI SETTING HEAD FOR KSTP 570 AND KPER 2 TO BINARY FILE HEADS FROM KSTP 1 AND KPER 2

 SFR-1 SETTING BUDGET TERMS FOR KSTP 570 AND KPER 2 TO BUDGET FILE TERMS FROM KSTP 1 AND KPER 2

 CONCENTRATION WILL BE SAVED ON UNIT 1024 AT END OF TIME STEP  570, STRESS PERIOD    2

end timestep


start timestep kper="2" kstp="571" mode="normal"


 FMI SETTING BUDGET TERMS FOR KSTP 571 AND KPER 2 TO BUDGET FILE TERMS FROM KSTP 1 AND KPER 2

 FMI SETTING HEAD FOR KSTP 571 AND KPER 2 TO BINARY FILE HEADS FROM KSTP 1 AND KPER 2

 SFR-1 SETTING BUDGET TERMS FOR KSTP 571 AND KPER 2 TO BUDGET FILE TERMS FROM KSTP 1 AND KPER 2

end timestep


start timestep kper="2" kstp="572" mode="normal"


 FMI SETTING BUDGET TERMS FOR KSTP 572 AND KPER 2 TO BUDGET FILE TERMS FROM KSTP 1 AND KPER 2

 FMI SETTING HEAD FOR KSTP 572 AND KPER 2 TO BINARY FILE HEADS FROM KSTP 1 AND KPER 2

 SFR-1 SETTING BUDGET TERMS FOR KSTP 572 AND KPER 2 TO BUDGET FILE TERMS FROM KSTP 1 AND KPER 2

end timestep


start timestep kper="2" kstp="573" mode="normal"


 FMI SETTING BUDGET TERMS FOR KSTP 573 AND KPER 2 TO BUDGET FILE TERMS FROM KSTP 1 AND KPER 2

 FMI SETTING HEAD FOR KSTP 573 AND KPER 2 TO BINARY FILE HEADS FROM KSTP 1 AND KPER 2

 SFR-1 SETTING BUDGET TERMS FOR KSTP 573 AND KPER 2 TO BUDGET FILE TERMS FROM KSTP 1 AND KPER 2

end timestep


start timestep kper="2" kstp="574" mode="normal"


 FMI SETTING BUDGET TERMS FOR KSTP 574 AND KPER 2 TO BUDGET FILE TERMS FROM KSTP 1 AND KPER 2

 FMI SETTING HEAD FOR KSTP 574 AND KPER 2 TO BINARY FILE HEADS FROM KSTP 1 AND KPER 2

 SFR-1 SETTING BUDGET TERMS FOR KSTP 574 AND KPER 2 TO BUDGET FILE TERMS FROM KSTP 1 AND KPER 2

end timestep


start timestep kper="2" kstp="575" mode="normal"


 FMI SETTING BUDGET TERMS FOR KSTP 575 AND KPER 2 TO BUDGET FILE TERMS FROM KSTP 1 AND KPER 2

 FMI SETTING HEAD FOR KSTP 575 AND KPER 2 TO BINARY FILE HEADS FROM KSTP 1 AND KPER 2

 SFR-1 SETTING BUDGET TERMS FOR KSTP 575 AND KPER 2 TO BUDGET FILE TERMS FROM KSTP 1 AND KPER 2

end timestep


start timestep kper="2" kstp="576" mode="normal"


 FMI SETTING BUDGET TERMS FOR KSTP 576 AND KPER 2 TO BUDGET FILE TERMS FROM KSTP 1 AND KPER 2

 FMI SETTING HEAD FOR KSTP 576 AND KPER 2 TO BINARY FILE HEADS FROM KSTP 1 AND KPER 2

 SFR-1 SETTING BUDGET TERMS FOR KSTP 576 AND KPER 2 TO BUDGET FILE TERMS FROM KSTP 1 AND KPER 2

end timestep


start timestep kper="2" kstp="577" mode="normal"


 FMI SETTING BUDGET TERMS FOR KSTP 577 AND KPER 2 TO BUDGET FILE TERMS FROM KSTP 1 AND KPER 2

 FMI SETTING HEAD FOR KSTP 577 AND KPER 2 TO BINARY FILE HEADS FROM KSTP 1 AND KPER 2

 SFR-1 SETTING BUDGET TERMS FOR KSTP 577 AND KPER 2 TO BUDGET FILE TERMS FROM KSTP 1 AND KPER 2

end timestep


start timestep kper="2" kstp="578" mode="normal"


 FMI SETTING BUDGET TERMS FOR KSTP 578 AND KPER 2 TO BUDGET FILE TERMS FROM KSTP 1 AND KPER 2

 FMI SETTING HEAD FOR KSTP 578 AND KPER 2 TO BINARY FILE HEADS FROM KSTP 1 AND KPER 2

 SFR-1 SETTING BUDGET TERMS FOR KSTP 578 AND KPER 2 TO BUDGET FILE TERMS FROM KSTP 1 AND KPER 2

end timestep


start timestep kper="2" kstp="579" mode="normal"


 FMI SETTING BUDGET TERMS FOR KSTP 579 AND KPER 2 TO BUDGET FILE TERMS FROM KSTP 1 AND KPER 2

 FMI SETTING HEAD FOR KSTP 579 AND KPER 2 TO BINARY FILE HEADS FROM KSTP 1 AND KPER 2

 SFR-1 SETTING BUDGET TERMS FOR KSTP 579 AND KPER 2 TO BUDGET FILE TERMS FROM KSTP 1 AND KPER 2

end timestep


start timestep kper="2" kstp="580" mode="normal"


 FMI SETTING BUDGET TERMS FOR KSTP 580 AND KPER 2 TO BUDGET FILE TERMS FROM KSTP 1 AND KPER 2

 FMI SETTING HEAD FOR KSTP 580 AND KPER 2 TO BINARY FILE HEADS FROM KSTP 1 AND KPER 2

 SFR-1 SETTING BUDGET TERMS FOR KSTP 580 AND KPER 2 TO BUDGET FILE TERMS FROM KSTP 1 AND KPER 2

 CONCENTRATION WILL BE SAVED ON UNIT 1024 AT END OF TIME STEP  580, STRESS PERIOD    2

end timestep


start timestep kper="2" kstp="581" mode="normal"


 FMI SETTING BUDGET TERMS FOR KSTP 581 AND KPER 2 TO BUDGET FILE TERMS FROM KSTP 1 AND KPER 2

 FMI SETTING HEAD FOR KSTP 581 AND KPER 2 TO BINARY FILE HEADS FROM KSTP 1 AND KPER 2

 SFR-1 SETTING BUDGET TERMS FOR KSTP 581 AND KPER 2 TO BUDGET FILE TERMS FROM KSTP 1 AND KPER 2

end timestep


start timestep kper="2" kstp="582" mode="normal"


 FMI SETTING BUDGET TERMS FOR KSTP 582 AND KPER 2 TO BUDGET FILE TERMS FROM KSTP 1 AND KPER 2

 FMI SETTING HEAD FOR KSTP 582 AND KPER 2 TO BINARY FILE HEADS FROM KSTP 1 AND KPER 2

 SFR-1 SETTING BUDGET TERMS FOR KSTP 582 AND KPER 2 TO BUDGET FILE TERMS FROM KSTP 1 AND KPER 2

end timestep


start timestep kper="2" kstp="583" mode="normal"


 FMI SETTING BUDGET TERMS FOR KSTP 583 AND KPER 2 TO BUDGET FILE TERMS FROM KSTP 1 AND KPER 2

 FMI SETTING HEAD FOR KSTP 583 AND KPER 2 TO BINARY FILE HEADS FROM KSTP 1 AND KPER 2

 SFR-1 SETTING BUDGET TERMS FOR KSTP 583 AND KPER 2 TO BUDGET FILE TERMS FROM KSTP 1 AND KPER 2

end timestep


start timestep kper="2" kstp="584" mode="normal"


 FMI SETTING BUDGET TERMS FOR KSTP 584 AND KPER 2 TO BUDGET FILE TERMS FROM KSTP 1 AND KPER 2

 FMI SETTING HEAD FOR KSTP 584 AND KPER 2 TO BINARY FILE HEADS FROM KSTP 1 AND KPER 2

 SFR-1 SETTING BUDGET TERMS FOR KSTP 584 AND KPER 2 TO BUDGET FILE TERMS FROM KSTP 1 AND KPER 2

end timestep


start timestep kper="2" kstp="585" mode="normal"


 FMI SETTING BUDGET TERMS FOR KSTP 585 AND KPER 2 TO BUDGET FILE TERMS FROM KSTP 1 AND KPER 2

 FMI SETTING HEAD FOR KSTP 585 AND KPER 2 TO BINARY FILE HEADS FROM KSTP 1 AND KPER 2

 SFR-1 SETTING BUDGET TERMS FOR KSTP 585 AND KPER 2 TO BUDGET FILE TERMS FROM KSTP 1 AND KPER 2

end timestep


start timestep kper="2" kstp="586" mode="normal"


 FMI SETTING BUDGET TERMS FOR KSTP 586 AND KPER 2 TO BUDGET FILE TERMS FROM KSTP 1 AND KPER 2

 FMI SETTING HEAD FOR KSTP 586 AND KPER 2 TO BINARY FILE HEADS FROM KSTP 1 AND KPER 2

 SFR-1 SETTING BUDGET TERMS FOR KSTP 586 AND KPER 2 TO BUDGET FILE TERMS FROM KSTP 1 AND KPER 2

end timestep


start timestep kper="2" kstp="587" mode="normal"


 FMI SETTING BUDGET TERMS FOR KSTP 587 AND KPER 2 TO BUDGET FILE TERMS FROM KSTP 1 AND KPER 2

 FMI SETTING HEAD FOR KSTP 587 AND KPER 2 TO BINARY FILE HEADS FROM KSTP 1 AND KPER 2

 SFR-1 SETTING BUDGET TERMS FOR KSTP 587 AND KPER 2 TO BUDGET FILE TERMS FROM KSTP 1 AND KPER 2

end timestep


start timestep kper="2" kstp="588" mode="normal"


 FMI SETTING BUDGET TERMS FOR KSTP 588 AND KPER 2 TO BUDGET FILE TERMS FROM KSTP 1 AND KPER 2

 FMI SETTING HEAD FOR KSTP 588 AND KPER 2 TO BINARY FILE HEADS FROM KSTP 1 AND KPER 2

 SFR-1 SETTING BUDGET TERMS FOR KSTP 588 AND KPER 2 TO BUDGET FILE TERMS FROM KSTP 1 AND KPER 2

end timestep


start timestep kper="2" kstp="589" mode="normal"


 FMI SETTING BUDGET TERMS FOR KSTP 589 AND KPER 2 TO BUDGET FILE TERMS FROM KSTP 1 AND KPER 2

 FMI SETTING HEAD FOR KSTP 589 AND KPER 2 TO BINARY FILE HEADS FROM KSTP 1 AND KPER 2

 SFR-1 SETTING BUDGET TERMS FOR KSTP 589 AND KPER 2 TO BUDGET FILE TERMS FROM KSTP 1 AND KPER 2

end timestep


start timestep kper="2" kstp="590" mode="normal"


 FMI SETTING BUDGET TERMS FOR KSTP 590 AND KPER 2 TO BUDGET FILE TERMS FROM KSTP 1 AND KPER 2

 FMI SETTING HEAD FOR KSTP 590 AND KPER 2 TO BINARY FILE HEADS FROM KSTP 1 AND KPER 2

 SFR-1 SETTING BUDGET TERMS FOR KSTP 590 AND KPER 2 TO BUDGET FILE TERMS FROM KSTP 1 AND KPER 2

 CONCENTRATION WILL BE SAVED ON UNIT 1024 AT END OF TIME STEP  590, STRESS PERIOD    2

end timestep


start timestep kper="2" kstp="591" mode="normal"


 FMI SETTING BUDGET TERMS FOR KSTP 591 AND KPER 2 TO BUDGET FILE TERMS FROM KSTP 1 AND KPER 2

 FMI SETTING HEAD FOR KSTP 591 AND KPER 2 TO BINARY FILE HEADS FROM KSTP 1 AND KPER 2

 SFR-1 SETTING BUDGET TERMS FOR KSTP 591 AND KPER 2 TO BUDGET FILE TERMS FROM KSTP 1 AND KPER 2

end timestep


start timestep kper="2" kstp="592" mode="normal"


 FMI SETTING BUDGET TERMS FOR KSTP 592 AND KPER 2 TO BUDGET FILE TERMS FROM KSTP 1 AND KPER 2

 FMI SETTING HEAD FOR KSTP 592 AND KPER 2 TO BINARY FILE HEADS FROM KSTP 1 AND KPER 2

 SFR-1 SETTING BUDGET TERMS FOR KSTP 592 AND KPER 2 TO BUDGET FILE TERMS FROM KSTP 1 AND KPER 2

end timestep


start timestep kper="2" kstp="593" mode="normal"


 FMI SETTING BUDGET TERMS FOR KSTP 593 AND KPER 2 TO BUDGET FILE TERMS FROM KSTP 1 AND KPER 2

 FMI SETTING HEAD FOR KSTP 593 AND KPER 2 TO BINARY FILE HEADS FROM KSTP 1 AND KPER 2

 SFR-1 SETTING BUDGET TERMS FOR KSTP 593 AND KPER 2 TO BUDGET FILE TERMS FROM KSTP 1 AND KPER 2

end timestep


start timestep kper="2" kstp="594" mode="normal"


 FMI SETTING BUDGET TERMS FOR KSTP 594 AND KPER 2 TO BUDGET FILE TERMS FROM KSTP 1 AND KPER 2

 FMI SETTING HEAD FOR KSTP 594 AND KPER 2 TO BINARY FILE HEADS FROM KSTP 1 AND KPER 2

 SFR-1 SETTING BUDGET TERMS FOR KSTP 594 AND KPER 2 TO BUDGET FILE TERMS FROM KSTP 1 AND KPER 2

end timestep


start timestep kper="2" kstp="595" mode="normal"


 FMI SETTING BUDGET TERMS FOR KSTP 595 AND KPER 2 TO BUDGET FILE TERMS FROM KSTP 1 AND KPER 2

 FMI SETTING HEAD FOR KSTP 595 AND KPER 2 TO BINARY FILE HEADS FROM KSTP 1 AND KPER 2

 SFR-1 SETTING BUDGET TERMS FOR KSTP 595 AND KPER 2 TO BUDGET FILE TERMS FROM KSTP 1 AND KPER 2

end timestep


start timestep kper="2" kstp="596" mode="normal"


 FMI SETTING BUDGET TERMS FOR KSTP 596 AND KPER 2 TO BUDGET FILE TERMS FROM KSTP 1 AND KPER 2

 FMI SETTING HEAD FOR KSTP 596 AND KPER 2 TO BINARY FILE HEADS FROM KSTP 1 AND KPER 2

 SFR-1 SETTING BUDGET TERMS FOR KSTP 596 AND KPER 2 TO BUDGET FILE TERMS FROM KSTP 1 AND KPER 2

end timestep


start timestep kper="2" kstp="597" mode="normal"


 FMI SETTING BUDGET TERMS FOR KSTP 597 AND KPER 2 TO BUDGET FILE TERMS FROM KSTP 1 AND KPER 2

 FMI SETTING HEAD FOR KSTP 597 AND KPER 2 TO BINARY FILE HEADS FROM KSTP 1 AND KPER 2

 SFR-1 SETTING BUDGET TERMS FOR KSTP 597 AND KPER 2 TO BUDGET FILE TERMS FROM KSTP 1 AND KPER 2

end timestep


start timestep kper="2" kstp="598" mode="normal"


 FMI SETTING BUDGET TERMS FOR KSTP 598 AND KPER 2 TO BUDGET FILE TERMS FROM KSTP 1 AND KPER 2

 FMI SETTING HEAD FOR KSTP 598 AND KPER 2 TO BINARY FILE HEADS FROM KSTP 1 AND KPER 2

 SFR-1 SETTING BUDGET TERMS FOR KSTP 598 AND KPER 2 TO BUDGET FILE TERMS FROM KSTP 1 AND KPER 2

end timestep


start timestep kper="2" kstp="599" mode="normal"


 FMI SETTING BUDGET TERMS FOR KSTP 599 AND KPER 2 TO BUDGET FILE TERMS FROM KSTP 1 AND KPER 2

 FMI SETTING HEAD FOR KSTP 599 AND KPER 2 TO BINARY FILE HEADS FROM KSTP 1 AND KPER 2

 SFR-1 SETTING BUDGET TERMS FOR KSTP 599 AND KPER 2 TO BUDGET FILE TERMS FROM KSTP 1 AND KPER 2

end timestep


start timestep kper="2" kstp="600" mode="normal"


 FMI SETTING BUDGET TERMS FOR KSTP 600 AND KPER 2 TO BUDGET FILE TERMS FROM KSTP 1 AND KPER 2

 FMI SETTING HEAD FOR KSTP 600 AND KPER 2 TO BINARY FILE HEADS FROM KSTP 1 AND KPER 2

 SFR-1 SETTING BUDGET TERMS FOR KSTP 600 AND KPER 2 TO BUDGET FILE TERMS FROM KSTP 1 AND KPER 2

 CONCENTRATION WILL BE SAVED ON UNIT 1024 AT END OF TIME STEP  600, STRESS PERIOD    2

end timestep


start timestep kper="2" kstp="601" mode="normal"


 FMI SETTING BUDGET TERMS FOR KSTP 601 AND KPER 2 TO BUDGET FILE TERMS FROM KSTP 1 AND KPER 2

 FMI SETTING HEAD FOR KSTP 601 AND KPER 2 TO BINARY FILE HEADS FROM KSTP 1 AND KPER 2

 SFR-1 SETTING BUDGET TERMS FOR KSTP 601 AND KPER 2 TO BUDGET FILE TERMS FROM KSTP 1 AND KPER 2

end timestep


start timestep kper="2" kstp="602" mode="normal"


 FMI SETTING BUDGET TERMS FOR KSTP 602 AND KPER 2 TO BUDGET FILE TERMS FROM KSTP 1 AND KPER 2

 FMI SETTING HEAD FOR KSTP 602 AND KPER 2 TO BINARY FILE HEADS FROM KSTP 1 AND KPER 2

 SFR-1 SETTING BUDGET TERMS FOR KSTP 602 AND KPER 2 TO BUDGET FILE TERMS FROM KSTP 1 AND KPER 2

end timestep


start timestep kper="2" kstp="603" mode="normal"


 FMI SETTING BUDGET TERMS FOR KSTP 603 AND KPER 2 TO BUDGET FILE TERMS FROM KSTP 1 AND KPER 2

 FMI SETTING HEAD FOR KSTP 603 AND KPER 2 TO BINARY FILE HEADS FROM KSTP 1 AND KPER 2

 SFR-1 SETTING BUDGET TERMS FOR KSTP 603 AND KPER 2 TO BUDGET FILE TERMS FROM KSTP 1 AND KPER 2

end timestep


start timestep kper="2" kstp="604" mode="normal"


 FMI SETTING BUDGET TERMS FOR KSTP 604 AND KPER 2 TO BUDGET FILE TERMS FROM KSTP 1 AND KPER 2

 FMI SETTING HEAD FOR KSTP 604 AND KPER 2 TO BINARY FILE HEADS FROM KSTP 1 AND KPER 2

 SFR-1 SETTING BUDGET TERMS FOR KSTP 604 AND KPER 2 TO BUDGET FILE TERMS FROM KSTP 1 AND KPER 2

end timestep


start timestep kper="2" kstp="605" mode="normal"


 FMI SETTING BUDGET TERMS FOR KSTP 605 AND KPER 2 TO BUDGET FILE TERMS FROM KSTP 1 AND KPER 2

 FMI SETTING HEAD FOR KSTP 605 AND KPER 2 TO BINARY FILE HEADS FROM KSTP 1 AND KPER 2

 SFR-1 SETTING BUDGET TERMS FOR KSTP 605 AND KPER 2 TO BUDGET FILE TERMS FROM KSTP 1 AND KPER 2

end timestep


start timestep kper="2" kstp="606" mode="normal"


 FMI SETTING BUDGET TERMS FOR KSTP 606 AND KPER 2 TO BUDGET FILE TERMS FROM KSTP 1 AND KPER 2

 FMI SETTING HEAD FOR KSTP 606 AND KPER 2 TO BINARY FILE HEADS FROM KSTP 1 AND KPER 2

 SFR-1 SETTING BUDGET TERMS FOR KSTP 606 AND KPER 2 TO BUDGET FILE TERMS FROM KSTP 1 AND KPER 2

end timestep


start timestep kper="2" kstp="607" mode="normal"


 FMI SETTING BUDGET TERMS FOR KSTP 607 AND KPER 2 TO BUDGET FILE TERMS FROM KSTP 1 AND KPER 2

 FMI SETTING HEAD FOR KSTP 607 AND KPER 2 TO BINARY FILE HEADS FROM KSTP 1 AND KPER 2

 SFR-1 SETTING BUDGET TERMS FOR KSTP 607 AND KPER 2 TO BUDGET FILE TERMS FROM KSTP 1 AND KPER 2

end timestep


start timestep kper="2" kstp="608" mode="normal"


 FMI SETTING BUDGET TERMS FOR KSTP 608 AND KPER 2 TO BUDGET FILE TERMS FROM KSTP 1 AND KPER 2

 FMI SETTING HEAD FOR KSTP 608 AND KPER 2 TO BINARY FILE HEADS FROM KSTP 1 AND KPER 2

 SFR-1 SETTING BUDGET TERMS FOR KSTP 608 AND KPER 2 TO BUDGET FILE TERMS FROM KSTP 1 AND KPER 2

end timestep


start timestep kper="2" kstp="609" mode="normal"


 FMI SETTING BUDGET TERMS FOR KSTP 609 AND KPER 2 TO BUDGET FILE TERMS FROM KSTP 1 AND KPER 2

 FMI SETTING HEAD FOR KSTP 609 AND KPER 2 TO BINARY FILE HEADS FROM KSTP 1 AND KPER 2

 SFR-1 SETTING BUDGET TERMS FOR KSTP 609 AND KPER 2 TO BUDGET FILE TERMS FROM KSTP 1 AND KPER 2

end timestep


start timestep kper="2" kstp="610" mode="normal"


 FMI SETTING BUDGET TERMS FOR KSTP 610 AND KPER 2 TO BUDGET FILE TERMS FROM KSTP 1 AND KPER 2

 FMI SETTING HEAD FOR KSTP 610 AND KPER 2 TO BINARY FILE HEADS FROM KSTP 1 AND KPER 2

 SFR-1 SETTING BUDGET TERMS FOR KSTP 610 AND KPER 2 TO BUDGET FILE TERMS FROM KSTP 1 AND KPER 2

 CONCENTRATION WILL BE SAVED ON UNIT 1024 AT END OF TIME STEP  610, STRESS PERIOD    2

end timestep


start timestep kper="2" kstp="611" mode="normal"


 FMI SETTING BUDGET TERMS FOR KSTP 611 AND KPER 2 TO BUDGET FILE TERMS FROM KSTP 1 AND KPER 2

 FMI SETTING HEAD FOR KSTP 611 AND KPER 2 TO BINARY FILE HEADS FROM KSTP 1 AND KPER 2

 SFR-1 SETTING BUDGET TERMS FOR KSTP 611 AND KPER 2 TO BUDGET FILE TERMS FROM KSTP 1 AND KPER 2

end timestep


start timestep kper="2" kstp="612" mode="normal"


 FMI SETTING BUDGET TERMS FOR KSTP 612 AND KPER 2 TO BUDGET FILE TERMS FROM KSTP 1 AND KPER 2

 FMI SETTING HEAD FOR KSTP 612 AND KPER 2 TO BINARY FILE HEADS FROM KSTP 1 AND KPER 2

 SFR-1 SETTING BUDGET TERMS FOR KSTP 612 AND KPER 2 TO BUDGET FILE TERMS FROM KSTP 1 AND KPER 2

end timestep


start timestep kper="2" kstp="613" mode="normal"


 FMI SETTING BUDGET TERMS FOR KSTP 613 AND KPER 2 TO BUDGET FILE TERMS FROM KSTP 1 AND KPER 2

 FMI SETTING HEAD FOR KSTP 613 AND KPER 2 TO BINARY FILE HEADS FROM KSTP 1 AND KPER 2

 SFR-1 SETTING BUDGET TERMS FOR KSTP 613 AND KPER 2 TO BUDGET FILE TERMS FROM KSTP 1 AND KPER 2

end timestep


start timestep kper="2" kstp="614" mode="normal"


 FMI SETTING BUDGET TERMS FOR KSTP 614 AND KPER 2 TO BUDGET FILE TERMS FROM KSTP 1 AND KPER 2

 FMI SETTING HEAD FOR KSTP 614 AND KPER 2 TO BINARY FILE HEADS FROM KSTP 1 AND KPER 2

 SFR-1 SETTING BUDGET TERMS FOR KSTP 614 AND KPER 2 TO BUDGET FILE TERMS FROM KSTP 1 AND KPER 2

end timestep


start timestep kper="2" kstp="615" mode="normal"


 FMI SETTING BUDGET TERMS FOR KSTP 615 AND KPER 2 TO BUDGET FILE TERMS FROM KSTP 1 AND KPER 2

 FMI SETTING HEAD FOR KSTP 615 AND KPER 2 TO BINARY FILE HEADS FROM KSTP 1 AND KPER 2

 SFR-1 SETTING BUDGET TERMS FOR KSTP 615 AND KPER 2 TO BUDGET FILE TERMS FROM KSTP 1 AND KPER 2

end timestep


start timestep kper="2" kstp="616" mode="normal"


 FMI SETTING BUDGET TERMS FOR KSTP 616 AND KPER 2 TO BUDGET FILE TERMS FROM KSTP 1 AND KPER 2

 FMI SETTING HEAD FOR KSTP 616 AND KPER 2 TO BINARY FILE HEADS FROM KSTP 1 AND KPER 2

 SFR-1 SETTING BUDGET TERMS FOR KSTP 616 AND KPER 2 TO BUDGET FILE TERMS FROM KSTP 1 AND KPER 2

end timestep


start timestep kper="2" kstp="617" mode="normal"


 FMI SETTING BUDGET TERMS FOR KSTP 617 AND KPER 2 TO BUDGET FILE TERMS FROM KSTP 1 AND KPER 2

 FMI SETTING HEAD FOR KSTP 617 AND KPER 2 TO BINARY FILE HEADS FROM KSTP 1 AND KPER 2

 SFR-1 SETTING BUDGET TERMS FOR KSTP 617 AND KPER 2 TO BUDGET FILE TERMS FROM KSTP 1 AND KPER 2

end timestep


start timestep kper="2" kstp="618" mode="normal"


 FMI SETTING BUDGET TERMS FOR KSTP 618 AND KPER 2 TO BUDGET FILE TERMS FROM KSTP 1 AND KPER 2

 FMI SETTING HEAD FOR KSTP 618 AND KPER 2 TO BINARY FILE HEADS FROM KSTP 1 AND KPER 2

 SFR-1 SETTING BUDGET TERMS FOR KSTP 618 AND KPER 2 TO BUDGET FILE TERMS FROM KSTP 1 AND KPER 2

end timestep


start timestep kper="2" kstp="619" mode="normal"


 FMI SETTING BUDGET TERMS FOR KSTP 619 AND KPER 2 TO BUDGET FILE TERMS FROM KSTP 1 AND KPER 2

 FMI SETTING HEAD FOR KSTP 619 AND KPER 2 TO BINARY FILE HEADS FROM KSTP 1 AND KPER 2

 SFR-1 SETTING BUDGET TERMS FOR KSTP 619 AND KPER 2 TO BUDGET FILE TERMS FROM KSTP 1 AND KPER 2

end timestep


start timestep kper="2" kstp="620" mode="normal"


 FMI SETTING BUDGET TERMS FOR KSTP 620 AND KPER 2 TO BUDGET FILE TERMS FROM KSTP 1 AND KPER 2

 FMI SETTING HEAD FOR KSTP 620 AND KPER 2 TO BINARY FILE HEADS FROM KSTP 1 AND KPER 2

 SFR-1 SETTING BUDGET TERMS FOR KSTP 620 AND KPER 2 TO BUDGET FILE TERMS FROM KSTP 1 AND KPER 2

 CONCENTRATION WILL BE SAVED ON UNIT 1024 AT END OF TIME STEP  620, STRESS PERIOD    2

end timestep


start timestep kper="2" kstp="621" mode="normal"


 FMI SETTING BUDGET TERMS FOR KSTP 621 AND KPER 2 TO BUDGET FILE TERMS FROM KSTP 1 AND KPER 2

 FMI SETTING HEAD FOR KSTP 621 AND KPER 2 TO BINARY FILE HEADS FROM KSTP 1 AND KPER 2

 SFR-1 SETTING BUDGET TERMS FOR KSTP 621 AND KPER 2 TO BUDGET FILE TERMS FROM KSTP 1 AND KPER 2

end timestep


start timestep kper="2" kstp="622" mode="normal"


 FMI SETTING BUDGET TERMS FOR KSTP 622 AND KPER 2 TO BUDGET FILE TERMS FROM KSTP 1 AND KPER 2

 FMI SETTING HEAD FOR KSTP 622 AND KPER 2 TO BINARY FILE HEADS FROM KSTP 1 AND KPER 2

 SFR-1 SETTING BUDGET TERMS FOR KSTP 622 AND KPER 2 TO BUDGET FILE TERMS FROM KSTP 1 AND KPER 2

end timestep


start timestep kper="2" kstp="623" mode="normal"


 FMI SETTING BUDGET TERMS FOR KSTP 623 AND KPER 2 TO BUDGET FILE TERMS FROM KSTP 1 AND KPER 2

 FMI SETTING HEAD FOR KSTP 623 AND KPER 2 TO BINARY FILE HEADS FROM KSTP 1 AND KPER 2

 SFR-1 SETTING BUDGET TERMS FOR KSTP 623 AND KPER 2 TO BUDGET FILE TERMS FROM KSTP 1 AND KPER 2

end timestep


start timestep kper="2" kstp="624" mode="normal"


 FMI SETTING BUDGET TERMS FOR KSTP 624 AND KPER 2 TO BUDGET FILE TERMS FROM KSTP 1 AND KPER 2

 FMI SETTING HEAD FOR KSTP 624 AND KPER 2 TO BINARY FILE HEADS FROM KSTP 1 AND KPER 2

 SFR-1 SETTING BUDGET TERMS FOR KSTP 624 AND KPER 2 TO BUDGET FILE TERMS FROM KSTP 1 AND KPER 2

end timestep


start timestep kper="2" kstp="625" mode="normal"


 FMI SETTING BUDGET TERMS FOR KSTP 625 AND KPER 2 TO BUDGET FILE TERMS FROM KSTP 1 AND KPER 2

 FMI SETTING HEAD FOR KSTP 625 AND KPER 2 TO BINARY FILE HEADS FROM KSTP 1 AND KPER 2

 SFR-1 SETTING BUDGET TERMS FOR KSTP 625 AND KPER 2 TO BUDGET FILE TERMS FROM KSTP 1 AND KPER 2

end timestep


start timestep kper="2" kstp="626" mode="normal"


 FMI SETTING BUDGET TERMS FOR KSTP 626 AND KPER 2 TO BUDGET FILE TERMS FROM KSTP 1 AND KPER 2

 FMI SETTING HEAD FOR KSTP 626 AND KPER 2 TO BINARY FILE HEADS FROM KSTP 1 AND KPER 2

 SFR-1 SETTING BUDGET TERMS FOR KSTP 626 AND KPER 2 TO BUDGET FILE TERMS FROM KSTP 1 AND KPER 2

end timestep


start timestep kper="2" kstp="627" mode="normal"


 FMI SETTING BUDGET TERMS FOR KSTP 627 AND KPER 2 TO BUDGET FILE TERMS FROM KSTP 1 AND KPER 2

 FMI SETTING HEAD FOR KSTP 627 AND KPER 2 TO BINARY FILE HEADS FROM KSTP 1 AND KPER 2

 SFR-1 SETTING BUDGET TERMS FOR KSTP 627 AND KPER 2 TO BUDGET FILE TERMS FROM KSTP 1 AND KPER 2

end timestep


start timestep kper="2" kstp="628" mode="normal"


 FMI SETTING BUDGET TERMS FOR KSTP 628 AND KPER 2 TO BUDGET FILE TERMS FROM KSTP 1 AND KPER 2

 FMI SETTING HEAD FOR KSTP 628 AND KPER 2 TO BINARY FILE HEADS FROM KSTP 1 AND KPER 2

 SFR-1 SETTING BUDGET TERMS FOR KSTP 628 AND KPER 2 TO BUDGET FILE TERMS FROM KSTP 1 AND KPER 2

end timestep


start timestep kper="2" kstp="629" mode="normal"


 FMI SETTING BUDGET TERMS FOR KSTP 629 AND KPER 2 TO BUDGET FILE TERMS FROM KSTP 1 AND KPER 2

 FMI SETTING HEAD FOR KSTP 629 AND KPER 2 TO BINARY FILE HEADS FROM KSTP 1 AND KPER 2

 SFR-1 SETTING BUDGET TERMS FOR KSTP 629 AND KPER 2 TO BUDGET FILE TERMS FROM KSTP 1 AND KPER 2

end timestep


start timestep kper="2" kstp="630" mode="normal"


 FMI SETTING BUDGET TERMS FOR KSTP 630 AND KPER 2 TO BUDGET FILE TERMS FROM KSTP 1 AND KPER 2

 FMI SETTING HEAD FOR KSTP 630 AND KPER 2 TO BINARY FILE HEADS FROM KSTP 1 AND KPER 2

 SFR-1 SETTING BUDGET TERMS FOR KSTP 630 AND KPER 2 TO BUDGET FILE TERMS FROM KSTP 1 AND KPER 2

 CONCENTRATION WILL BE SAVED ON UNIT 1024 AT END OF TIME STEP  630, STRESS PERIOD    2

end timestep


start timestep kper="2" kstp="631" mode="normal"


 FMI SETTING BUDGET TERMS FOR KSTP 631 AND KPER 2 TO BUDGET FILE TERMS FROM KSTP 1 AND KPER 2

 FMI SETTING HEAD FOR KSTP 631 AND KPER 2 TO BINARY FILE HEADS FROM KSTP 1 AND KPER 2

 SFR-1 SETTING BUDGET TERMS FOR KSTP 631 AND KPER 2 TO BUDGET FILE TERMS FROM KSTP 1 AND KPER 2

end timestep


start timestep kper="2" kstp="632" mode="normal"


 FMI SETTING BUDGET TERMS FOR KSTP 632 AND KPER 2 TO BUDGET FILE TERMS FROM KSTP 1 AND KPER 2

 FMI SETTING HEAD FOR KSTP 632 AND KPER 2 TO BINARY FILE HEADS FROM KSTP 1 AND KPER 2

 SFR-1 SETTING BUDGET TERMS FOR KSTP 632 AND KPER 2 TO BUDGET FILE TERMS FROM KSTP 1 AND KPER 2

end timestep


start timestep kper="2" kstp="633" mode="normal"


 FMI SETTING BUDGET TERMS FOR KSTP 633 AND KPER 2 TO BUDGET FILE TERMS FROM KSTP 1 AND KPER 2

 FMI SETTING HEAD FOR KSTP 633 AND KPER 2 TO BINARY FILE HEADS FROM KSTP 1 AND KPER 2

 SFR-1 SETTING BUDGET TERMS FOR KSTP 633 AND KPER 2 TO BUDGET FILE TERMS FROM KSTP 1 AND KPER 2

end timestep


start timestep kper="2" kstp="634" mode="normal"


 FMI SETTING BUDGET TERMS FOR KSTP 634 AND KPER 2 TO BUDGET FILE TERMS FROM KSTP 1 AND KPER 2

 FMI SETTING HEAD FOR KSTP 634 AND KPER 2 TO BINARY FILE HEADS FROM KSTP 1 AND KPER 2

 SFR-1 SETTING BUDGET TERMS FOR KSTP 634 AND KPER 2 TO BUDGET FILE TERMS FROM KSTP 1 AND KPER 2

end timestep


start timestep kper="2" kstp="635" mode="normal"


 FMI SETTING BUDGET TERMS FOR KSTP 635 AND KPER 2 TO BUDGET FILE TERMS FROM KSTP 1 AND KPER 2

 FMI SETTING HEAD FOR KSTP 635 AND KPER 2 TO BINARY FILE HEADS FROM KSTP 1 AND KPER 2

 SFR-1 SETTING BUDGET TERMS FOR KSTP 635 AND KPER 2 TO BUDGET FILE TERMS FROM KSTP 1 AND KPER 2

end timestep


start timestep kper="2" kstp="636" mode="normal"


 FMI SETTING BUDGET TERMS FOR KSTP 636 AND KPER 2 TO BUDGET FILE TERMS FROM KSTP 1 AND KPER 2

 FMI SETTING HEAD FOR KSTP 636 AND KPER 2 TO BINARY FILE HEADS FROM KSTP 1 AND KPER 2

 SFR-1 SETTING BUDGET TERMS FOR KSTP 636 AND KPER 2 TO BUDGET FILE TERMS FROM KSTP 1 AND KPER 2

end timestep


start timestep kper="2" kstp="637" mode="normal"


 FMI SETTING BUDGET TERMS FOR KSTP 637 AND KPER 2 TO BUDGET FILE TERMS FROM KSTP 1 AND KPER 2

 FMI SETTING HEAD FOR KSTP 637 AND KPER 2 TO BINARY FILE HEADS FROM KSTP 1 AND KPER 2

 SFR-1 SETTING BUDGET TERMS FOR KSTP 637 AND KPER 2 TO BUDGET FILE TERMS FROM KSTP 1 AND KPER 2

end timestep


start timestep kper="2" kstp="638" mode="normal"


 FMI SETTING BUDGET TERMS FOR KSTP 638 AND KPER 2 TO BUDGET FILE TERMS FROM KSTP 1 AND KPER 2

 FMI SETTING HEAD FOR KSTP 638 AND KPER 2 TO BINARY FILE HEADS FROM KSTP 1 AND KPER 2

 SFR-1 SETTING BUDGET TERMS FOR KSTP 638 AND KPER 2 TO BUDGET FILE TERMS FROM KSTP 1 AND KPER 2

end timestep


start timestep kper="2" kstp="639" mode="normal"


 FMI SETTING BUDGET TERMS FOR KSTP 639 AND KPER 2 TO BUDGET FILE TERMS FROM KSTP 1 AND KPER 2

 FMI SETTING HEAD FOR KSTP 639 AND KPER 2 TO BINARY FILE HEADS FROM KSTP 1 AND KPER 2

 SFR-1 SETTING BUDGET TERMS FOR KSTP 639 AND KPER 2 TO BUDGET FILE TERMS FROM KSTP 1 AND KPER 2

end timestep


start timestep kper="2" kstp="640" mode="normal"


 FMI SETTING BUDGET TERMS FOR KSTP 640 AND KPER 2 TO BUDGET FILE TERMS FROM KSTP 1 AND KPER 2

 FMI SETTING HEAD FOR KSTP 640 AND KPER 2 TO BINARY FILE HEADS FROM KSTP 1 AND KPER 2

 SFR-1 SETTING BUDGET TERMS FOR KSTP 640 AND KPER 2 TO BUDGET FILE TERMS FROM KSTP 1 AND KPER 2

 CONCENTRATION WILL BE SAVED ON UNIT 1024 AT END OF TIME STEP  640, STRESS PERIOD    2

end timestep


start timestep kper="2" kstp="641" mode="normal"


 FMI SETTING BUDGET TERMS FOR KSTP 641 AND KPER 2 TO BUDGET FILE TERMS FROM KSTP 1 AND KPER 2

 FMI SETTING HEAD FOR KSTP 641 AND KPER 2 TO BINARY FILE HEADS FROM KSTP 1 AND KPER 2

 SFR-1 SETTING BUDGET TERMS FOR KSTP 641 AND KPER 2 TO BUDGET FILE TERMS FROM KSTP 1 AND KPER 2

end timestep


start timestep kper="2" kstp="642" mode="normal"


 FMI SETTING BUDGET TERMS FOR KSTP 642 AND KPER 2 TO BUDGET FILE TERMS FROM KSTP 1 AND KPER 2

 FMI SETTING HEAD FOR KSTP 642 AND KPER 2 TO BINARY FILE HEADS FROM KSTP 1 AND KPER 2

 SFR-1 SETTING BUDGET TERMS FOR KSTP 642 AND KPER 2 TO BUDGET FILE TERMS FROM KSTP 1 AND KPER 2

end timestep


start timestep kper="2" kstp="643" mode="normal"


 FMI SETTING BUDGET TERMS FOR KSTP 643 AND KPER 2 TO BUDGET FILE TERMS FROM KSTP 1 AND KPER 2

 FMI SETTING HEAD FOR KSTP 643 AND KPER 2 TO BINARY FILE HEADS FROM KSTP 1 AND KPER 2

 SFR-1 SETTING BUDGET TERMS FOR KSTP 643 AND KPER 2 TO BUDGET FILE TERMS FROM KSTP 1 AND KPER 2

end timestep


start timestep kper="2" kstp="644" mode="normal"


 FMI SETTING BUDGET TERMS FOR KSTP 644 AND KPER 2 TO BUDGET FILE TERMS FROM KSTP 1 AND KPER 2

 FMI SETTING HEAD FOR KSTP 644 AND KPER 2 TO BINARY FILE HEADS FROM KSTP 1 AND KPER 2

 SFR-1 SETTING BUDGET TERMS FOR KSTP 644 AND KPER 2 TO BUDGET FILE TERMS FROM KSTP 1 AND KPER 2

end timestep


start timestep kper="2" kstp="645" mode="normal"


 FMI SETTING BUDGET TERMS FOR KSTP 645 AND KPER 2 TO BUDGET FILE TERMS FROM KSTP 1 AND KPER 2

 FMI SETTING HEAD FOR KSTP 645 AND KPER 2 TO BINARY FILE HEADS FROM KSTP 1 AND KPER 2

 SFR-1 SETTING BUDGET TERMS FOR KSTP 645 AND KPER 2 TO BUDGET FILE TERMS FROM KSTP 1 AND KPER 2

end timestep


start timestep kper="2" kstp="646" mode="normal"


 FMI SETTING BUDGET TERMS FOR KSTP 646 AND KPER 2 TO BUDGET FILE TERMS FROM KSTP 1 AND KPER 2

 FMI SETTING HEAD FOR KSTP 646 AND KPER 2 TO BINARY FILE HEADS FROM KSTP 1 AND KPER 2

 SFR-1 SETTING BUDGET TERMS FOR KSTP 646 AND KPER 2 TO BUDGET FILE TERMS FROM KSTP 1 AND KPER 2

end timestep


start timestep kper="2" kstp="647" mode="normal"


 FMI SETTING BUDGET TERMS FOR KSTP 647 AND KPER 2 TO BUDGET FILE TERMS FROM KSTP 1 AND KPER 2

 FMI SETTING HEAD FOR KSTP 647 AND KPER 2 TO BINARY FILE HEADS FROM KSTP 1 AND KPER 2

 SFR-1 SETTING BUDGET TERMS FOR KSTP 647 AND KPER 2 TO BUDGET FILE TERMS FROM KSTP 1 AND KPER 2

end timestep


start timestep kper="2" kstp="648" mode="normal"


 FMI SETTING BUDGET TERMS FOR KSTP 648 AND KPER 2 TO BUDGET FILE TERMS FROM KSTP 1 AND KPER 2

 FMI SETTING HEAD FOR KSTP 648 AND KPER 2 TO BINARY FILE HEADS FROM KSTP 1 AND KPER 2

 SFR-1 SETTING BUDGET TERMS FOR KSTP 648 AND KPER 2 TO BUDGET FILE TERMS FROM KSTP 1 AND KPER 2

end timestep


start timestep kper="2" kstp="649" mode="normal"


 FMI SETTING BUDGET TERMS FOR KSTP 649 AND KPER 2 TO BUDGET FILE TERMS FROM KSTP 1 AND KPER 2

 FMI SETTING HEAD FOR KSTP 649 AND KPER 2 TO BINARY FILE HEADS FROM KSTP 1 AND KPER 2

 SFR-1 SETTING BUDGET TERMS FOR KSTP 649 AND KPER 2 TO BUDGET FILE TERMS FROM KSTP 1 AND KPER 2

end timestep


start timestep kper="2" kstp="650" mode="normal"


 FMI SETTING BUDGET TERMS FOR KSTP 650 AND KPER 2 TO BUDGET FILE TERMS FROM KSTP 1 AND KPER 2

 FMI SETTING HEAD FOR KSTP 650 AND KPER 2 TO BINARY FILE HEADS FROM KSTP 1 AND KPER 2

 SFR-1 SETTING BUDGET TERMS FOR KSTP 650 AND KPER 2 TO BUDGET FILE TERMS FROM KSTP 1 AND KPER 2

 CONCENTRATION WILL BE SAVED ON UNIT 1024 AT END OF TIME STEP  650, STRESS PERIOD    2

end timestep


start timestep kper="2" kstp="651" mode="normal"


 FMI SETTING BUDGET TERMS FOR KSTP 651 AND KPER 2 TO BUDGET FILE TERMS FROM KSTP 1 AND KPER 2

 FMI SETTING HEAD FOR KSTP 651 AND KPER 2 TO BINARY FILE HEADS FROM KSTP 1 AND KPER 2

 SFR-1 SETTING BUDGET TERMS FOR KSTP 651 AND KPER 2 TO BUDGET FILE TERMS FROM KSTP 1 AND KPER 2

end timestep


start timestep kper="2" kstp="652" mode="normal"


 FMI SETTING BUDGET TERMS FOR KSTP 652 AND KPER 2 TO BUDGET FILE TERMS FROM KSTP 1 AND KPER 2

 FMI SETTING HEAD FOR KSTP 652 AND KPER 2 TO BINARY FILE HEADS FROM KSTP 1 AND KPER 2

 SFR-1 SETTING BUDGET TERMS FOR KSTP 652 AND KPER 2 TO BUDGET FILE TERMS FROM KSTP 1 AND KPER 2

end timestep


start timestep kper="2" kstp="653" mode="normal"


 FMI SETTING BUDGET TERMS FOR KSTP 653 AND KPER 2 TO BUDGET FILE TERMS FROM KSTP 1 AND KPER 2

 FMI SETTING HEAD FOR KSTP 653 AND KPER 2 TO BINARY FILE HEADS FROM KSTP 1 AND KPER 2

 SFR-1 SETTING BUDGET TERMS FOR KSTP 653 AND KPER 2 TO BUDGET FILE TERMS FROM KSTP 1 AND KPER 2

end timestep


start timestep kper="2" kstp="654" mode="normal"


 FMI SETTING BUDGET TERMS FOR KSTP 654 AND KPER 2 TO BUDGET FILE TERMS FROM KSTP 1 AND KPER 2

 FMI SETTING HEAD FOR KSTP 654 AND KPER 2 TO BINARY FILE HEADS FROM KSTP 1 AND KPER 2

 SFR-1 SETTING BUDGET TERMS FOR KSTP 654 AND KPER 2 TO BUDGET FILE TERMS FROM KSTP 1 AND KPER 2

end timestep


start timestep kper="2" kstp="655" mode="normal"


 FMI SETTING BUDGET TERMS FOR KSTP 655 AND KPER 2 TO BUDGET FILE TERMS FROM KSTP 1 AND KPER 2

 FMI SETTING HEAD FOR KSTP 655 AND KPER 2 TO BINARY FILE HEADS FROM KSTP 1 AND KPER 2

 SFR-1 SETTING BUDGET TERMS FOR KSTP 655 AND KPER 2 TO BUDGET FILE TERMS FROM KSTP 1 AND KPER 2

end timestep


start timestep kper="2" kstp="656" mode="normal"


 FMI SETTING BUDGET TERMS FOR KSTP 656 AND KPER 2 TO BUDGET FILE TERMS FROM KSTP 1 AND KPER 2

 FMI SETTING HEAD FOR KSTP 656 AND KPER 2 TO BINARY FILE HEADS FROM KSTP 1 AND KPER 2

 SFR-1 SETTING BUDGET TERMS FOR KSTP 656 AND KPER 2 TO BUDGET FILE TERMS FROM KSTP 1 AND KPER 2

end timestep


start timestep kper="2" kstp="657" mode="normal"


 FMI SETTING BUDGET TERMS FOR KSTP 657 AND KPER 2 TO BUDGET FILE TERMS FROM KSTP 1 AND KPER 2

 FMI SETTING HEAD FOR KSTP 657 AND KPER 2 TO BINARY FILE HEADS FROM KSTP 1 AND KPER 2

 SFR-1 SETTING BUDGET TERMS FOR KSTP 657 AND KPER 2 TO BUDGET FILE TERMS FROM KSTP 1 AND KPER 2

end timestep


start timestep kper="2" kstp="658" mode="normal"


 FMI SETTING BUDGET TERMS FOR KSTP 658 AND KPER 2 TO BUDGET FILE TERMS FROM KSTP 1 AND KPER 2

 FMI SETTING HEAD FOR KSTP 658 AND KPER 2 TO BINARY FILE HEADS FROM KSTP 1 AND KPER 2

 SFR-1 SETTING BUDGET TERMS FOR KSTP 658 AND KPER 2 TO BUDGET FILE TERMS FROM KSTP 1 AND KPER 2

end timestep


start timestep kper="2" kstp="659" mode="normal"


 FMI SETTING BUDGET TERMS FOR KSTP 659 AND KPER 2 TO BUDGET FILE TERMS FROM KSTP 1 AND KPER 2

 FMI SETTING HEAD FOR KSTP 659 AND KPER 2 TO BINARY FILE HEADS FROM KSTP 1 AND KPER 2

 SFR-1 SETTING BUDGET TERMS FOR KSTP 659 AND KPER 2 TO BUDGET FILE TERMS FROM KSTP 1 AND KPER 2

end timestep


start timestep kper="2" kstp="660" mode="normal"


 FMI SETTING BUDGET TERMS FOR KSTP 660 AND KPER 2 TO BUDGET FILE TERMS FROM KSTP 1 AND KPER 2

 FMI SETTING HEAD FOR KSTP 660 AND KPER 2 TO BINARY FILE HEADS FROM KSTP 1 AND KPER 2

 SFR-1 SETTING BUDGET TERMS FOR KSTP 660 AND KPER 2 TO BUDGET FILE TERMS FROM KSTP 1 AND KPER 2

 CONCENTRATION WILL BE SAVED ON UNIT 1024 AT END OF TIME STEP  660, STRESS PERIOD    2

end timestep


start timestep kper="2" kstp="661" mode="normal"


 FMI SETTING BUDGET TERMS FOR KSTP 661 AND KPER 2 TO BUDGET FILE TERMS FROM KSTP 1 AND KPER 2

 FMI SETTING HEAD FOR KSTP 661 AND KPER 2 TO BINARY FILE HEADS FROM KSTP 1 AND KPER 2

 SFR-1 SETTING BUDGET TERMS FOR KSTP 661 AND KPER 2 TO BUDGET FILE TERMS FROM KSTP 1 AND KPER 2

end timestep


start timestep kper="2" kstp="662" mode="normal"


 FMI SETTING BUDGET TERMS FOR KSTP 662 AND KPER 2 TO BUDGET FILE TERMS FROM KSTP 1 AND KPER 2

 FMI SETTING HEAD FOR KSTP 662 AND KPER 2 TO BINARY FILE HEADS FROM KSTP 1 AND KPER 2

 SFR-1 SETTING BUDGET TERMS FOR KSTP 662 AND KPER 2 TO BUDGET FILE TERMS FROM KSTP 1 AND KPER 2

end timestep


start timestep kper="2" kstp="663" mode="normal"


 FMI SETTING BUDGET TERMS FOR KSTP 663 AND KPER 2 TO BUDGET FILE TERMS FROM KSTP 1 AND KPER 2

 FMI SETTING HEAD FOR KSTP 663 AND KPER 2 TO BINARY FILE HEADS FROM KSTP 1 AND KPER 2

 SFR-1 SETTING BUDGET TERMS FOR KSTP 663 AND KPER 2 TO BUDGET FILE TERMS FROM KSTP 1 AND KPER 2

end timestep


start timestep kper="2" kstp="664" mode="normal"


 FMI SETTING BUDGET TERMS FOR KSTP 664 AND KPER 2 TO BUDGET FILE TERMS FROM KSTP 1 AND KPER 2

 FMI SETTING HEAD FOR KSTP 664 AND KPER 2 TO BINARY FILE HEADS FROM KSTP 1 AND KPER 2

 SFR-1 SETTING BUDGET TERMS FOR KSTP 664 AND KPER 2 TO BUDGET FILE TERMS FROM KSTP 1 AND KPER 2

end timestep


start timestep kper="2" kstp="665" mode="normal"


 FMI SETTING BUDGET TERMS FOR KSTP 665 AND KPER 2 TO BUDGET FILE TERMS FROM KSTP 1 AND KPER 2

 FMI SETTING HEAD FOR KSTP 665 AND KPER 2 TO BINARY FILE HEADS FROM KSTP 1 AND KPER 2

 SFR-1 SETTING BUDGET TERMS FOR KSTP 665 AND KPER 2 TO BUDGET FILE TERMS FROM KSTP 1 AND KPER 2

end timestep


start timestep kper="2" kstp="666" mode="normal"


 FMI SETTING BUDGET TERMS FOR KSTP 666 AND KPER 2 TO BUDGET FILE TERMS FROM KSTP 1 AND KPER 2

 FMI SETTING HEAD FOR KSTP 666 AND KPER 2 TO BINARY FILE HEADS FROM KSTP 1 AND KPER 2

 SFR-1 SETTING BUDGET TERMS FOR KSTP 666 AND KPER 2 TO BUDGET FILE TERMS FROM KSTP 1 AND KPER 2

end timestep


start timestep kper="2" kstp="667" mode="normal"


 FMI SETTING BUDGET TERMS FOR KSTP 667 AND KPER 2 TO BUDGET FILE TERMS FROM KSTP 1 AND KPER 2

 FMI SETTING HEAD FOR KSTP 667 AND KPER 2 TO BINARY FILE HEADS FROM KSTP 1 AND KPER 2

 SFR-1 SETTING BUDGET TERMS FOR KSTP 667 AND KPER 2 TO BUDGET FILE TERMS FROM KSTP 1 AND KPER 2

end timestep


start timestep kper="2" kstp="668" mode="normal"


 FMI SETTING BUDGET TERMS FOR KSTP 668 AND KPER 2 TO BUDGET FILE TERMS FROM KSTP 1 AND KPER 2

 FMI SETTING HEAD FOR KSTP 668 AND KPER 2 TO BINARY FILE HEADS FROM KSTP 1 AND KPER 2

 SFR-1 SETTING BUDGET TERMS FOR KSTP 668 AND KPER 2 TO BUDGET FILE TERMS FROM KSTP 1 AND KPER 2

end timestep


start timestep kper="2" kstp="669" mode="normal"


 FMI SETTING BUDGET TERMS FOR KSTP 669 AND KPER 2 TO BUDGET FILE TERMS FROM KSTP 1 AND KPER 2

 FMI SETTING HEAD FOR KSTP 669 AND KPER 2 TO BINARY FILE HEADS FROM KSTP 1 AND KPER 2

 SFR-1 SETTING BUDGET TERMS FOR KSTP 669 AND KPER 2 TO BUDGET FILE TERMS FROM KSTP 1 AND KPER 2

end timestep


start timestep kper="2" kstp="670" mode="normal"


 FMI SETTING BUDGET TERMS FOR KSTP 670 AND KPER 2 TO BUDGET FILE TERMS FROM KSTP 1 AND KPER 2

 FMI SETTING HEAD FOR KSTP 670 AND KPER 2 TO BINARY FILE HEADS FROM KSTP 1 AND KPER 2

 SFR-1 SETTING BUDGET TERMS FOR KSTP 670 AND KPER 2 TO BUDGET FILE TERMS FROM KSTP 1 AND KPER 2

 CONCENTRATION WILL BE SAVED ON UNIT 1024 AT END OF TIME STEP  670, STRESS PERIOD    2

end timestep


start timestep kper="2" kstp="671" mode="normal"


 FMI SETTING BUDGET TERMS FOR KSTP 671 AND KPER 2 TO BUDGET FILE TERMS FROM KSTP 1 AND KPER 2

 FMI SETTING HEAD FOR KSTP 671 AND KPER 2 TO BINARY FILE HEADS FROM KSTP 1 AND KPER 2

 SFR-1 SETTING BUDGET TERMS FOR KSTP 671 AND KPER 2 TO BUDGET FILE TERMS FROM KSTP 1 AND KPER 2

end timestep


start timestep kper="2" kstp="672" mode="normal"


 FMI SETTING BUDGET TERMS FOR KSTP 672 AND KPER 2 TO BUDGET FILE TERMS FROM KSTP 1 AND KPER 2

 FMI SETTING HEAD FOR KSTP 672 AND KPER 2 TO BINARY FILE HEADS FROM KSTP 1 AND KPER 2

 SFR-1 SETTING BUDGET TERMS FOR KSTP 672 AND KPER 2 TO BUDGET FILE TERMS FROM KSTP 1 AND KPER 2

end timestep


start timestep kper="2" kstp="673" mode="normal"


 FMI SETTING BUDGET TERMS FOR KSTP 673 AND KPER 2 TO BUDGET FILE TERMS FROM KSTP 1 AND KPER 2

 FMI SETTING HEAD FOR KSTP 673 AND KPER 2 TO BINARY FILE HEADS FROM KSTP 1 AND KPER 2

 SFR-1 SETTING BUDGET TERMS FOR KSTP 673 AND KPER 2 TO BUDGET FILE TERMS FROM KSTP 1 AND KPER 2

end timestep


start timestep kper="2" kstp="674" mode="normal"


 FMI SETTING BUDGET TERMS FOR KSTP 674 AND KPER 2 TO BUDGET FILE TERMS FROM KSTP 1 AND KPER 2

 FMI SETTING HEAD FOR KSTP 674 AND KPER 2 TO BINARY FILE HEADS FROM KSTP 1 AND KPER 2

 SFR-1 SETTING BUDGET TERMS FOR KSTP 674 AND KPER 2 TO BUDGET FILE TERMS FROM KSTP 1 AND KPER 2

end timestep


start timestep kper="2" kstp="675" mode="normal"


 FMI SETTING BUDGET TERMS FOR KSTP 675 AND KPER 2 TO BUDGET FILE TERMS FROM KSTP 1 AND KPER 2

 FMI SETTING HEAD FOR KSTP 675 AND KPER 2 TO BINARY FILE HEADS FROM KSTP 1 AND KPER 2

 SFR-1 SETTING BUDGET TERMS FOR KSTP 675 AND KPER 2 TO BUDGET FILE TERMS FROM KSTP 1 AND KPER 2

end timestep


start timestep kper="2" kstp="676" mode="normal"


 FMI SETTING BUDGET TERMS FOR KSTP 676 AND KPER 2 TO BUDGET FILE TERMS FROM KSTP 1 AND KPER 2

 FMI SETTING HEAD FOR KSTP 676 AND KPER 2 TO BINARY FILE HEADS FROM KSTP 1 AND KPER 2

 SFR-1 SETTING BUDGET TERMS FOR KSTP 676 AND KPER 2 TO BUDGET FILE TERMS FROM KSTP 1 AND KPER 2

end timestep


start timestep kper="2" kstp="677" mode="normal"


 FMI SETTING BUDGET TERMS FOR KSTP 677 AND KPER 2 TO BUDGET FILE TERMS FROM KSTP 1 AND KPER 2

 FMI SETTING HEAD FOR KSTP 677 AND KPER 2 TO BINARY FILE HEADS FROM KSTP 1 AND KPER 2

 SFR-1 SETTING BUDGET TERMS FOR KSTP 677 AND KPER 2 TO BUDGET FILE TERMS FROM KSTP 1 AND KPER 2

end timestep


start timestep kper="2" kstp="678" mode="normal"


 FMI SETTING BUDGET TERMS FOR KSTP 678 AND KPER 2 TO BUDGET FILE TERMS FROM KSTP 1 AND KPER 2

 FMI SETTING HEAD FOR KSTP 678 AND KPER 2 TO BINARY FILE HEADS FROM KSTP 1 AND KPER 2

 SFR-1 SETTING BUDGET TERMS FOR KSTP 678 AND KPER 2 TO BUDGET FILE TERMS FROM KSTP 1 AND KPER 2

end timestep


start timestep kper="2" kstp="679" mode="normal"


 FMI SETTING BUDGET TERMS FOR KSTP 679 AND KPER 2 TO BUDGET FILE TERMS FROM KSTP 1 AND KPER 2

 FMI SETTING HEAD FOR KSTP 679 AND KPER 2 TO BINARY FILE HEADS FROM KSTP 1 AND KPER 2

 SFR-1 SETTING BUDGET TERMS FOR KSTP 679 AND KPER 2 TO BUDGET FILE TERMS FROM KSTP 1 AND KPER 2

end timestep


start timestep kper="2" kstp="680" mode="normal"


 FMI SETTING BUDGET TERMS FOR KSTP 680 AND KPER 2 TO BUDGET FILE TERMS FROM KSTP 1 AND KPER 2

 FMI SETTING HEAD FOR KSTP 680 AND KPER 2 TO BINARY FILE HEADS FROM KSTP 1 AND KPER 2

 SFR-1 SETTING BUDGET TERMS FOR KSTP 680 AND KPER 2 TO BUDGET FILE TERMS FROM KSTP 1 AND KPER 2

 CONCENTRATION WILL BE SAVED ON UNIT 1024 AT END OF TIME STEP  680, STRESS PERIOD    2

end timestep


start timestep kper="2" kstp="681" mode="normal"


 FMI SETTING BUDGET TERMS FOR KSTP 681 AND KPER 2 TO BUDGET FILE TERMS FROM KSTP 1 AND KPER 2

 FMI SETTING HEAD FOR KSTP 681 AND KPER 2 TO BINARY FILE HEADS FROM KSTP 1 AND KPER 2

 SFR-1 SETTING BUDGET TERMS FOR KSTP 681 AND KPER 2 TO BUDGET FILE TERMS FROM KSTP 1 AND KPER 2

end timestep


start timestep kper="2" kstp="682" mode="normal"


 FMI SETTING BUDGET TERMS FOR KSTP 682 AND KPER 2 TO BUDGET FILE TERMS FROM KSTP 1 AND KPER 2

 FMI SETTING HEAD FOR KSTP 682 AND KPER 2 TO BINARY FILE HEADS FROM KSTP 1 AND KPER 2

 SFR-1 SETTING BUDGET TERMS FOR KSTP 682 AND KPER 2 TO BUDGET FILE TERMS FROM KSTP 1 AND KPER 2

end timestep


start timestep kper="2" kstp="683" mode="normal"


 FMI SETTING BUDGET TERMS FOR KSTP 683 AND KPER 2 TO BUDGET FILE TERMS FROM KSTP 1 AND KPER 2

 FMI SETTING HEAD FOR KSTP 683 AND KPER 2 TO BINARY FILE HEADS FROM KSTP 1 AND KPER 2

 SFR-1 SETTING BUDGET TERMS FOR KSTP 683 AND KPER 2 TO BUDGET FILE TERMS FROM KSTP 1 AND KPER 2

end timestep


start timestep kper="2" kstp="684" mode="normal"


 FMI SETTING BUDGET TERMS FOR KSTP 684 AND KPER 2 TO BUDGET FILE TERMS FROM KSTP 1 AND KPER 2

 FMI SETTING HEAD FOR KSTP 684 AND KPER 2 TO BINARY FILE HEADS FROM KSTP 1 AND KPER 2

 SFR-1 SETTING BUDGET TERMS FOR KSTP 684 AND KPER 2 TO BUDGET FILE TERMS FROM KSTP 1 AND KPER 2

end timestep


start timestep kper="2" kstp="685" mode="normal"


 FMI SETTING BUDGET TERMS FOR KSTP 685 AND KPER 2 TO BUDGET FILE TERMS FROM KSTP 1 AND KPER 2

 FMI SETTING HEAD FOR KSTP 685 AND KPER 2 TO BINARY FILE HEADS FROM KSTP 1 AND KPER 2

 SFR-1 SETTING BUDGET TERMS FOR KSTP 685 AND KPER 2 TO BUDGET FILE TERMS FROM KSTP 1 AND KPER 2

end timestep


start timestep kper="2" kstp="686" mode="normal"


 FMI SETTING BUDGET TERMS FOR KSTP 686 AND KPER 2 TO BUDGET FILE TERMS FROM KSTP 1 AND KPER 2

 FMI SETTING HEAD FOR KSTP 686 AND KPER 2 TO BINARY FILE HEADS FROM KSTP 1 AND KPER 2

 SFR-1 SETTING BUDGET TERMS FOR KSTP 686 AND KPER 2 TO BUDGET FILE TERMS FROM KSTP 1 AND KPER 2

end timestep


start timestep kper="2" kstp="687" mode="normal"


 FMI SETTING BUDGET TERMS FOR KSTP 687 AND KPER 2 TO BUDGET FILE TERMS FROM KSTP 1 AND KPER 2

 FMI SETTING HEAD FOR KSTP 687 AND KPER 2 TO BINARY FILE HEADS FROM KSTP 1 AND KPER 2

 SFR-1 SETTING BUDGET TERMS FOR KSTP 687 AND KPER 2 TO BUDGET FILE TERMS FROM KSTP 1 AND KPER 2

end timestep


start timestep kper="2" kstp="688" mode="normal"


 FMI SETTING BUDGET TERMS FOR KSTP 688 AND KPER 2 TO BUDGET FILE TERMS FROM KSTP 1 AND KPER 2

 FMI SETTING HEAD FOR KSTP 688 AND KPER 2 TO BINARY FILE HEADS FROM KSTP 1 AND KPER 2

 SFR-1 SETTING BUDGET TERMS FOR KSTP 688 AND KPER 2 TO BUDGET FILE TERMS FROM KSTP 1 AND KPER 2

end timestep


start timestep kper="2" kstp="689" mode="normal"


 FMI SETTING BUDGET TERMS FOR KSTP 689 AND KPER 2 TO BUDGET FILE TERMS FROM KSTP 1 AND KPER 2

 FMI SETTING HEAD FOR KSTP 689 AND KPER 2 TO BINARY FILE HEADS FROM KSTP 1 AND KPER 2

 SFR-1 SETTING BUDGET TERMS FOR KSTP 689 AND KPER 2 TO BUDGET FILE TERMS FROM KSTP 1 AND KPER 2

end timestep


start timestep kper="2" kstp="690" mode="normal"


 FMI SETTING BUDGET TERMS FOR KSTP 690 AND KPER 2 TO BUDGET FILE TERMS FROM KSTP 1 AND KPER 2

 FMI SETTING HEAD FOR KSTP 690 AND KPER 2 TO BINARY FILE HEADS FROM KSTP 1 AND KPER 2

 SFR-1 SETTING BUDGET TERMS FOR KSTP 690 AND KPER 2 TO BUDGET FILE TERMS FROM KSTP 1 AND KPER 2

 CONCENTRATION WILL BE SAVED ON UNIT 1024 AT END OF TIME STEP  690, STRESS PERIOD    2

end timestep


start timestep kper="2" kstp="691" mode="normal"


 FMI SETTING BUDGET TERMS FOR KSTP 691 AND KPER 2 TO BUDGET FILE TERMS FROM KSTP 1 AND KPER 2

 FMI SETTING HEAD FOR KSTP 691 AND KPER 2 TO BINARY FILE HEADS FROM KSTP 1 AND KPER 2

 SFR-1 SETTING BUDGET TERMS FOR KSTP 691 AND KPER 2 TO BUDGET FILE TERMS FROM KSTP 1 AND KPER 2

end timestep


start timestep kper="2" kstp="692" mode="normal"


 FMI SETTING BUDGET TERMS FOR KSTP 692 AND KPER 2 TO BUDGET FILE TERMS FROM KSTP 1 AND KPER 2

 FMI SETTING HEAD FOR KSTP 692 AND KPER 2 TO BINARY FILE HEADS FROM KSTP 1 AND KPER 2

 SFR-1 SETTING BUDGET TERMS FOR KSTP 692 AND KPER 2 TO BUDGET FILE TERMS FROM KSTP 1 AND KPER 2

end timestep


start timestep kper="2" kstp="693" mode="normal"


 FMI SETTING BUDGET TERMS FOR KSTP 693 AND KPER 2 TO BUDGET FILE TERMS FROM KSTP 1 AND KPER 2

 FMI SETTING HEAD FOR KSTP 693 AND KPER 2 TO BINARY FILE HEADS FROM KSTP 1 AND KPER 2

 SFR-1 SETTING BUDGET TERMS FOR KSTP 693 AND KPER 2 TO BUDGET FILE TERMS FROM KSTP 1 AND KPER 2

end timestep


start timestep kper="2" kstp="694" mode="normal"


 FMI SETTING BUDGET TERMS FOR KSTP 694 AND KPER 2 TO BUDGET FILE TERMS FROM KSTP 1 AND KPER 2

 FMI SETTING HEAD FOR KSTP 694 AND KPER 2 TO BINARY FILE HEADS FROM KSTP 1 AND KPER 2

 SFR-1 SETTING BUDGET TERMS FOR KSTP 694 AND KPER 2 TO BUDGET FILE TERMS FROM KSTP 1 AND KPER 2

end timestep


start timestep kper="2" kstp="695" mode="normal"


 FMI SETTING BUDGET TERMS FOR KSTP 695 AND KPER 2 TO BUDGET FILE TERMS FROM KSTP 1 AND KPER 2

 FMI SETTING HEAD FOR KSTP 695 AND KPER 2 TO BINARY FILE HEADS FROM KSTP 1 AND KPER 2

 SFR-1 SETTING BUDGET TERMS FOR KSTP 695 AND KPER 2 TO BUDGET FILE TERMS FROM KSTP 1 AND KPER 2

end timestep


start timestep kper="2" kstp="696" mode="normal"


 FMI SETTING BUDGET TERMS FOR KSTP 696 AND KPER 2 TO BUDGET FILE TERMS FROM KSTP 1 AND KPER 2

 FMI SETTING HEAD FOR KSTP 696 AND KPER 2 TO BINARY FILE HEADS FROM KSTP 1 AND KPER 2

 SFR-1 SETTING BUDGET TERMS FOR KSTP 696 AND KPER 2 TO BUDGET FILE TERMS FROM KSTP 1 AND KPER 2

end timestep


start timestep kper="2" kstp="697" mode="normal"


 FMI SETTING BUDGET TERMS FOR KSTP 697 AND KPER 2 TO BUDGET FILE TERMS FROM KSTP 1 AND KPER 2

 FMI SETTING HEAD FOR KSTP 697 AND KPER 2 TO BINARY FILE HEADS FROM KSTP 1 AND KPER 2

 SFR-1 SETTING BUDGET TERMS FOR KSTP 697 AND KPER 2 TO BUDGET FILE TERMS FROM KSTP 1 AND KPER 2

end timestep


start timestep kper="2" kstp="698" mode="normal"


 FMI SETTING BUDGET TERMS FOR KSTP 698 AND KPER 2 TO BUDGET FILE TERMS FROM KSTP 1 AND KPER 2

 FMI SETTING HEAD FOR KSTP 698 AND KPER 2 TO BINARY FILE HEADS FROM KSTP 1 AND KPER 2

 SFR-1 SETTING BUDGET TERMS FOR KSTP 698 AND KPER 2 TO BUDGET FILE TERMS FROM KSTP 1 AND KPER 2

end timestep


start timestep kper="2" kstp="699" mode="normal"


 FMI SETTING BUDGET TERMS FOR KSTP 699 AND KPER 2 TO BUDGET FILE TERMS FROM KSTP 1 AND KPER 2

 FMI SETTING HEAD FOR KSTP 699 AND KPER 2 TO BINARY FILE HEADS FROM KSTP 1 AND KPER 2

 SFR-1 SETTING BUDGET TERMS FOR KSTP 699 AND KPER 2 TO BUDGET FILE TERMS FROM KSTP 1 AND KPER 2

end timestep


start timestep kper="2" kstp="700" mode="normal"


 FMI SETTING BUDGET TERMS FOR KSTP 700 AND KPER 2 TO BUDGET FILE TERMS FROM KSTP 1 AND KPER 2

 FMI SETTING HEAD FOR KSTP 700 AND KPER 2 TO BINARY FILE HEADS FROM KSTP 1 AND KPER 2

 SFR-1 SETTING BUDGET TERMS FOR KSTP 700 AND KPER 2 TO BUDGET FILE TERMS FROM KSTP 1 AND KPER 2

 CONCENTRATION WILL BE SAVED ON UNIT 1024 AT END OF TIME STEP  700, STRESS PERIOD    2

end timestep


start timestep kper="2" kstp="701" mode="normal"


 FMI SETTING BUDGET TERMS FOR KSTP 701 AND KPER 2 TO BUDGET FILE TERMS FROM KSTP 1 AND KPER 2

 FMI SETTING HEAD FOR KSTP 701 AND KPER 2 TO BINARY FILE HEADS FROM KSTP 1 AND KPER 2

 SFR-1 SETTING BUDGET TERMS FOR KSTP 701 AND KPER 2 TO BUDGET FILE TERMS FROM KSTP 1 AND KPER 2

end timestep


start timestep kper="2" kstp="702" mode="normal"


 FMI SETTING BUDGET TERMS FOR KSTP 702 AND KPER 2 TO BUDGET FILE TERMS FROM KSTP 1 AND KPER 2

 FMI SETTING HEAD FOR KSTP 702 AND KPER 2 TO BINARY FILE HEADS FROM KSTP 1 AND KPER 2

 SFR-1 SETTING BUDGET TERMS FOR KSTP 702 AND KPER 2 TO BUDGET FILE TERMS FROM KSTP 1 AND KPER 2

end timestep


start timestep kper="2" kstp="703" mode="normal"


 FMI SETTING BUDGET TERMS FOR KSTP 703 AND KPER 2 TO BUDGET FILE TERMS FROM KSTP 1 AND KPER 2

 FMI SETTING HEAD FOR KSTP 703 AND KPER 2 TO BINARY FILE HEADS FROM KSTP 1 AND KPER 2

 SFR-1 SETTING BUDGET TERMS FOR KSTP 703 AND KPER 2 TO BUDGET FILE TERMS FROM KSTP 1 AND KPER 2

end timestep


start timestep kper="2" kstp="704" mode="normal"


 FMI SETTING BUDGET TERMS FOR KSTP 704 AND KPER 2 TO BUDGET FILE TERMS FROM KSTP 1 AND KPER 2

 FMI SETTING HEAD FOR KSTP 704 AND KPER 2 TO BINARY FILE HEADS FROM KSTP 1 AND KPER 2

 SFR-1 SETTING BUDGET TERMS FOR KSTP 704 AND KPER 2 TO BUDGET FILE TERMS FROM KSTP 1 AND KPER 2

end timestep


start timestep kper="2" kstp="705" mode="normal"


 FMI SETTING BUDGET TERMS FOR KSTP 705 AND KPER 2 TO BUDGET FILE TERMS FROM KSTP 1 AND KPER 2

 FMI SETTING HEAD FOR KSTP 705 AND KPER 2 TO BINARY FILE HEADS FROM KSTP 1 AND KPER 2

 SFR-1 SETTING BUDGET TERMS FOR KSTP 705 AND KPER 2 TO BUDGET FILE TERMS FROM KSTP 1 AND KPER 2

end timestep


start timestep kper="2" kstp="706" mode="normal"


 FMI SETTING BUDGET TERMS FOR KSTP 706 AND KPER 2 TO BUDGET FILE TERMS FROM KSTP 1 AND KPER 2

 FMI SETTING HEAD FOR KSTP 706 AND KPER 2 TO BINARY FILE HEADS FROM KSTP 1 AND KPER 2

 SFR-1 SETTING BUDGET TERMS FOR KSTP 706 AND KPER 2 TO BUDGET FILE TERMS FROM KSTP 1 AND KPER 2

end timestep


start timestep kper="2" kstp="707" mode="normal"


 FMI SETTING BUDGET TERMS FOR KSTP 707 AND KPER 2 TO BUDGET FILE TERMS FROM KSTP 1 AND KPER 2

 FMI SETTING HEAD FOR KSTP 707 AND KPER 2 TO BINARY FILE HEADS FROM KSTP 1 AND KPER 2

 SFR-1 SETTING BUDGET TERMS FOR KSTP 707 AND KPER 2 TO BUDGET FILE TERMS FROM KSTP 1 AND KPER 2

end timestep


start timestep kper="2" kstp="708" mode="normal"


 FMI SETTING BUDGET TERMS FOR KSTP 708 AND KPER 2 TO BUDGET FILE TERMS FROM KSTP 1 AND KPER 2

 FMI SETTING HEAD FOR KSTP 708 AND KPER 2 TO BINARY FILE HEADS FROM KSTP 1 AND KPER 2

 SFR-1 SETTING BUDGET TERMS FOR KSTP 708 AND KPER 2 TO BUDGET FILE TERMS FROM KSTP 1 AND KPER 2

end timestep


start timestep kper="2" kstp="709" mode="normal"


 FMI SETTING BUDGET TERMS FOR KSTP 709 AND KPER 2 TO BUDGET FILE TERMS FROM KSTP 1 AND KPER 2

 FMI SETTING HEAD FOR KSTP 709 AND KPER 2 TO BINARY FILE HEADS FROM KSTP 1 AND KPER 2

 SFR-1 SETTING BUDGET TERMS FOR KSTP 709 AND KPER 2 TO BUDGET FILE TERMS FROM KSTP 1 AND KPER 2

end timestep


start timestep kper="2" kstp="710" mode="normal"


 FMI SETTING BUDGET TERMS FOR KSTP 710 AND KPER 2 TO BUDGET FILE TERMS FROM KSTP 1 AND KPER 2

 FMI SETTING HEAD FOR KSTP 710 AND KPER 2 TO BINARY FILE HEADS FROM KSTP 1 AND KPER 2

 SFR-1 SETTING BUDGET TERMS FOR KSTP 710 AND KPER 2 TO BUDGET FILE TERMS FROM KSTP 1 AND KPER 2

 CONCENTRATION WILL BE SAVED ON UNIT 1024 AT END OF TIME STEP  710, STRESS PERIOD    2

end timestep


start timestep kper="2" kstp="711" mode="normal"


 FMI SETTING BUDGET TERMS FOR KSTP 711 AND KPER 2 TO BUDGET FILE TERMS FROM KSTP 1 AND KPER 2

 FMI SETTING HEAD FOR KSTP 711 AND KPER 2 TO BINARY FILE HEADS FROM KSTP 1 AND KPER 2

 SFR-1 SETTING BUDGET TERMS FOR KSTP 711 AND KPER 2 TO BUDGET FILE TERMS FROM KSTP 1 AND KPER 2

end timestep


start timestep kper="2" kstp="712" mode="normal"


 FMI SETTING BUDGET TERMS FOR KSTP 712 AND KPER 2 TO BUDGET FILE TERMS FROM KSTP 1 AND KPER 2

 FMI SETTING HEAD FOR KSTP 712 AND KPER 2 TO BINARY FILE HEADS FROM KSTP 1 AND KPER 2

 SFR-1 SETTING BUDGET TERMS FOR KSTP 712 AND KPER 2 TO BUDGET FILE TERMS FROM KSTP 1 AND KPER 2

end timestep


start timestep kper="2" kstp="713" mode="normal"


 FMI SETTING BUDGET TERMS FOR KSTP 713 AND KPER 2 TO BUDGET FILE TERMS FROM KSTP 1 AND KPER 2

 FMI SETTING HEAD FOR KSTP 713 AND KPER 2 TO BINARY FILE HEADS FROM KSTP 1 AND KPER 2

 SFR-1 SETTING BUDGET TERMS FOR KSTP 713 AND KPER 2 TO BUDGET FILE TERMS FROM KSTP 1 AND KPER 2

end timestep


start timestep kper="2" kstp="714" mode="normal"


 FMI SETTING BUDGET TERMS FOR KSTP 714 AND KPER 2 TO BUDGET FILE TERMS FROM KSTP 1 AND KPER 2

 FMI SETTING HEAD FOR KSTP 714 AND KPER 2 TO BINARY FILE HEADS FROM KSTP 1 AND KPER 2

 SFR-1 SETTING BUDGET TERMS FOR KSTP 714 AND KPER 2 TO BUDGET FILE TERMS FROM KSTP 1 AND KPER 2

end timestep


start timestep kper="2" kstp="715" mode="normal"


 FMI SETTING BUDGET TERMS FOR KSTP 715 AND KPER 2 TO BUDGET FILE TERMS FROM KSTP 1 AND KPER 2

 FMI SETTING HEAD FOR KSTP 715 AND KPER 2 TO BINARY FILE HEADS FROM KSTP 1 AND KPER 2

 SFR-1 SETTING BUDGET TERMS FOR KSTP 715 AND KPER 2 TO BUDGET FILE TERMS FROM KSTP 1 AND KPER 2

end timestep


start timestep kper="2" kstp="716" mode="normal"


 FMI SETTING BUDGET TERMS FOR KSTP 716 AND KPER 2 TO BUDGET FILE TERMS FROM KSTP 1 AND KPER 2

 FMI SETTING HEAD FOR KSTP 716 AND KPER 2 TO BINARY FILE HEADS FROM KSTP 1 AND KPER 2

 SFR-1 SETTING BUDGET TERMS FOR KSTP 716 AND KPER 2 TO BUDGET FILE TERMS FROM KSTP 1 AND KPER 2

end timestep


start timestep kper="2" kstp="717" mode="normal"


 FMI SETTING BUDGET TERMS FOR KSTP 717 AND KPER 2 TO BUDGET FILE TERMS FROM KSTP 1 AND KPER 2

 FMI SETTING HEAD FOR KSTP 717 AND KPER 2 TO BINARY FILE HEADS FROM KSTP 1 AND KPER 2

 SFR-1 SETTING BUDGET TERMS FOR KSTP 717 AND KPER 2 TO BUDGET FILE TERMS FROM KSTP 1 AND KPER 2

end timestep


start timestep kper="2" kstp="718" mode="normal"


 FMI SETTING BUDGET TERMS FOR KSTP 718 AND KPER 2 TO BUDGET FILE TERMS FROM KSTP 1 AND KPER 2

 FMI SETTING HEAD FOR KSTP 718 AND KPER 2 TO BINARY FILE HEADS FROM KSTP 1 AND KPER 2

 SFR-1 SETTING BUDGET TERMS FOR KSTP 718 AND KPER 2 TO BUDGET FILE TERMS FROM KSTP 1 AND KPER 2

end timestep


start timestep kper="2" kstp="719" mode="normal"


 FMI SETTING BUDGET TERMS FOR KSTP 719 AND KPER 2 TO BUDGET FILE TERMS FROM KSTP 1 AND KPER 2

 FMI SETTING HEAD FOR KSTP 719 AND KPER 2 TO BINARY FILE HEADS FROM KSTP 1 AND KPER 2

 SFR-1 SETTING BUDGET TERMS FOR KSTP 719 AND KPER 2 TO BUDGET FILE TERMS FROM KSTP 1 AND KPER 2

end timestep


start timestep kper="2" kstp="720" mode="normal"


 FMI SETTING BUDGET TERMS FOR KSTP 720 AND KPER 2 TO BUDGET FILE TERMS FROM KSTP 1 AND KPER 2

 FMI SETTING HEAD FOR KSTP 720 AND KPER 2 TO BINARY FILE HEADS FROM KSTP 1 AND KPER 2

 SFR-1 SETTING BUDGET TERMS FOR KSTP 720 AND KPER 2 TO BUDGET FILE TERMS FROM KSTP 1 AND KPER 2

 CONCENTRATION WILL BE SAVED ON UNIT 1024 AT END OF TIME STEP  720, STRESS PERIOD    2

end timestep


start timestep kper="2" kstp="721" mode="normal"


 FMI SETTING BUDGET TERMS FOR KSTP 721 AND KPER 2 TO BUDGET FILE TERMS FROM KSTP 1 AND KPER 2

 FMI SETTING HEAD FOR KSTP 721 AND KPER 2 TO BINARY FILE HEADS FROM KSTP 1 AND KPER 2

 SFR-1 SETTING BUDGET TERMS FOR KSTP 721 AND KPER 2 TO BUDGET FILE TERMS FROM KSTP 1 AND KPER 2

end timestep


start timestep kper="2" kstp="722" mode="normal"


 FMI SETTING BUDGET TERMS FOR KSTP 722 AND KPER 2 TO BUDGET FILE TERMS FROM KSTP 1 AND KPER 2

 FMI SETTING HEAD FOR KSTP 722 AND KPER 2 TO BINARY FILE HEADS FROM KSTP 1 AND KPER 2

 SFR-1 SETTING BUDGET TERMS FOR KSTP 722 AND KPER 2 TO BUDGET FILE TERMS FROM KSTP 1 AND KPER 2

end timestep


start timestep kper="2" kstp="723" mode="normal"


 FMI SETTING BUDGET TERMS FOR KSTP 723 AND KPER 2 TO BUDGET FILE TERMS FROM KSTP 1 AND KPER 2

 FMI SETTING HEAD FOR KSTP 723 AND KPER 2 TO BINARY FILE HEADS FROM KSTP 1 AND KPER 2

 SFR-1 SETTING BUDGET TERMS FOR KSTP 723 AND KPER 2 TO BUDGET FILE TERMS FROM KSTP 1 AND KPER 2

end timestep


start timestep kper="2" kstp="724" mode="normal"


 FMI SETTING BUDGET TERMS FOR KSTP 724 AND KPER 2 TO BUDGET FILE TERMS FROM KSTP 1 AND KPER 2

 FMI SETTING HEAD FOR KSTP 724 AND KPER 2 TO BINARY FILE HEADS FROM KSTP 1 AND KPER 2

 SFR-1 SETTING BUDGET TERMS FOR KSTP 724 AND KPER 2 TO BUDGET FILE TERMS FROM KSTP 1 AND KPER 2

end timestep


start timestep kper="2" kstp="725" mode="normal"


 FMI SETTING BUDGET TERMS FOR KSTP 725 AND KPER 2 TO BUDGET FILE TERMS FROM KSTP 1 AND KPER 2

 FMI SETTING HEAD FOR KSTP 725 AND KPER 2 TO BINARY FILE HEADS FROM KSTP 1 AND KPER 2

 SFR-1 SETTING BUDGET TERMS FOR KSTP 725 AND KPER 2 TO BUDGET FILE TERMS FROM KSTP 1 AND KPER 2

end timestep


start timestep kper="2" kstp="726" mode="normal"


 FMI SETTING BUDGET TERMS FOR KSTP 726 AND KPER 2 TO BUDGET FILE TERMS FROM KSTP 1 AND KPER 2

 FMI SETTING HEAD FOR KSTP 726 AND KPER 2 TO BINARY FILE HEADS FROM KSTP 1 AND KPER 2

 SFR-1 SETTING BUDGET TERMS FOR KSTP 726 AND KPER 2 TO BUDGET FILE TERMS FROM KSTP 1 AND KPER 2

end timestep


start timestep kper="2" kstp="727" mode="normal"


 FMI SETTING BUDGET TERMS FOR KSTP 727 AND KPER 2 TO BUDGET FILE TERMS FROM KSTP 1 AND KPER 2

 FMI SETTING HEAD FOR KSTP 727 AND KPER 2 TO BINARY FILE HEADS FROM KSTP 1 AND KPER 2

 SFR-1 SETTING BUDGET TERMS FOR KSTP 727 AND KPER 2 TO BUDGET FILE TERMS FROM KSTP 1 AND KPER 2

end timestep


start timestep kper="2" kstp="728" mode="normal"


 FMI SETTING BUDGET TERMS FOR KSTP 728 AND KPER 2 TO BUDGET FILE TERMS FROM KSTP 1 AND KPER 2

 FMI SETTING HEAD FOR KSTP 728 AND KPER 2 TO BINARY FILE HEADS FROM KSTP 1 AND KPER 2

 SFR-1 SETTING BUDGET TERMS FOR KSTP 728 AND KPER 2 TO BUDGET FILE TERMS FROM KSTP 1 AND KPER 2

end timestep


start timestep kper="2" kstp="729" mode="normal"


 FMI SETTING BUDGET TERMS FOR KSTP 729 AND KPER 2 TO BUDGET FILE TERMS FROM KSTP 1 AND KPER 2

 FMI SETTING HEAD FOR KSTP 729 AND KPER 2 TO BINARY FILE HEADS FROM KSTP 1 AND KPER 2

 SFR-1 SETTING BUDGET TERMS FOR KSTP 729 AND KPER 2 TO BUDGET FILE TERMS FROM KSTP 1 AND KPER 2

end timestep


start timestep kper="2" kstp="730" mode="normal"


 FMI SETTING BUDGET TERMS FOR KSTP 730 AND KPER 2 TO BUDGET FILE TERMS FROM KSTP 1 AND KPER 2

 FMI SETTING HEAD FOR KSTP 730 AND KPER 2 TO BINARY FILE HEADS FROM KSTP 1 AND KPER 2

 SFR-1 SETTING BUDGET TERMS FOR KSTP 730 AND KPER 2 TO BUDGET FILE TERMS FROM KSTP 1 AND KPER 2

 CONCENTRATION WILL BE SAVED ON UNIT 1024 AT END OF TIME STEP  730, STRESS PERIOD    2

end timestep


start timestep kper="2" kstp="731" mode="normal"


 FMI SETTING BUDGET TERMS FOR KSTP 731 AND KPER 2 TO BUDGET FILE TERMS FROM KSTP 1 AND KPER 2

 FMI SETTING HEAD FOR KSTP 731 AND KPER 2 TO BINARY FILE HEADS FROM KSTP 1 AND KPER 2

 SFR-1 SETTING BUDGET TERMS FOR KSTP 731 AND KPER 2 TO BUDGET FILE TERMS FROM KSTP 1 AND KPER 2

end timestep


start timestep kper="2" kstp="732" mode="normal"


 FMI SETTING BUDGET TERMS FOR KSTP 732 AND KPER 2 TO BUDGET FILE TERMS FROM KSTP 1 AND KPER 2

 FMI SETTING HEAD FOR KSTP 732 AND KPER 2 TO BINARY FILE HEADS FROM KSTP 1 AND KPER 2

 SFR-1 SETTING BUDGET TERMS FOR KSTP 732 AND KPER 2 TO BUDGET FILE TERMS FROM KSTP 1 AND KPER 2

end timestep


start timestep kper="2" kstp="733" mode="normal"


 FMI SETTING BUDGET TERMS FOR KSTP 733 AND KPER 2 TO BUDGET FILE TERMS FROM KSTP 1 AND KPER 2

 FMI SETTING HEAD FOR KSTP 733 AND KPER 2 TO BINARY FILE HEADS FROM KSTP 1 AND KPER 2

 SFR-1 SETTING BUDGET TERMS FOR KSTP 733 AND KPER 2 TO BUDGET FILE TERMS FROM KSTP 1 AND KPER 2

end timestep


start timestep kper="2" kstp="734" mode="normal"


 FMI SETTING BUDGET TERMS FOR KSTP 734 AND KPER 2 TO BUDGET FILE TERMS FROM KSTP 1 AND KPER 2

 FMI SETTING HEAD FOR KSTP 734 AND KPER 2 TO BINARY FILE HEADS FROM KSTP 1 AND KPER 2

 SFR-1 SETTING BUDGET TERMS FOR KSTP 734 AND KPER 2 TO BUDGET FILE TERMS FROM KSTP 1 AND KPER 2

end timestep


start timestep kper="2" kstp="735" mode="normal"


 FMI SETTING BUDGET TERMS FOR KSTP 735 AND KPER 2 TO BUDGET FILE TERMS FROM KSTP 1 AND KPER 2

 FMI SETTING HEAD FOR KSTP 735 AND KPER 2 TO BINARY FILE HEADS FROM KSTP 1 AND KPER 2

 SFR-1 SETTING BUDGET TERMS FOR KSTP 735 AND KPER 2 TO BUDGET FILE TERMS FROM KSTP 1 AND KPER 2

end timestep


start timestep kper="2" kstp="736" mode="normal"


 FMI SETTING BUDGET TERMS FOR KSTP 736 AND KPER 2 TO BUDGET FILE TERMS FROM KSTP 1 AND KPER 2

 FMI SETTING HEAD FOR KSTP 736 AND KPER 2 TO BINARY FILE HEADS FROM KSTP 1 AND KPER 2

 SFR-1 SETTING BUDGET TERMS FOR KSTP 736 AND KPER 2 TO BUDGET FILE TERMS FROM KSTP 1 AND KPER 2

end timestep


start timestep kper="2" kstp="737" mode="normal"


 FMI SETTING BUDGET TERMS FOR KSTP 737 AND KPER 2 TO BUDGET FILE TERMS FROM KSTP 1 AND KPER 2

 FMI SETTING HEAD FOR KSTP 737 AND KPER 2 TO BINARY FILE HEADS FROM KSTP 1 AND KPER 2

 SFR-1 SETTING BUDGET TERMS FOR KSTP 737 AND KPER 2 TO BUDGET FILE TERMS FROM KSTP 1 AND KPER 2

end timestep


start timestep kper="2" kstp="738" mode="normal"


 FMI SETTING BUDGET TERMS FOR KSTP 738 AND KPER 2 TO BUDGET FILE TERMS FROM KSTP 1 AND KPER 2

 FMI SETTING HEAD FOR KSTP 738 AND KPER 2 TO BINARY FILE HEADS FROM KSTP 1 AND KPER 2

 SFR-1 SETTING BUDGET TERMS FOR KSTP 738 AND KPER 2 TO BUDGET FILE TERMS FROM KSTP 1 AND KPER 2

end timestep


start timestep kper="2" kstp="739" mode="normal"


 FMI SETTING BUDGET TERMS FOR KSTP 739 AND KPER 2 TO BUDGET FILE TERMS FROM KSTP 1 AND KPER 2

 FMI SETTING HEAD FOR KSTP 739 AND KPER 2 TO BINARY FILE HEADS FROM KSTP 1 AND KPER 2

 SFR-1 SETTING BUDGET TERMS FOR KSTP 739 AND KPER 2 TO BUDGET FILE TERMS FROM KSTP 1 AND KPER 2

end timestep


start timestep kper="2" kstp="740" mode="normal"


 FMI SETTING BUDGET TERMS FOR KSTP 740 AND KPER 2 TO BUDGET FILE TERMS FROM KSTP 1 AND KPER 2

 FMI SETTING HEAD FOR KSTP 740 AND KPER 2 TO BINARY FILE HEADS FROM KSTP 1 AND KPER 2

 SFR-1 SETTING BUDGET TERMS FOR KSTP 740 AND KPER 2 TO BUDGET FILE TERMS FROM KSTP 1 AND KPER 2

 CONCENTRATION WILL BE SAVED ON UNIT 1024 AT END OF TIME STEP  740, STRESS PERIOD    2

end timestep


start timestep kper="2" kstp="741" mode="normal"


 FMI SETTING BUDGET TERMS FOR KSTP 741 AND KPER 2 TO BUDGET FILE TERMS FROM KSTP 1 AND KPER 2

 FMI SETTING HEAD FOR KSTP 741 AND KPER 2 TO BINARY FILE HEADS FROM KSTP 1 AND KPER 2

 SFR-1 SETTING BUDGET TERMS FOR KSTP 741 AND KPER 2 TO BUDGET FILE TERMS FROM KSTP 1 AND KPER 2

end timestep


start timestep kper="2" kstp="742" mode="normal"


 FMI SETTING BUDGET TERMS FOR KSTP 742 AND KPER 2 TO BUDGET FILE TERMS FROM KSTP 1 AND KPER 2

 FMI SETTING HEAD FOR KSTP 742 AND KPER 2 TO BINARY FILE HEADS FROM KSTP 1 AND KPER 2

 SFR-1 SETTING BUDGET TERMS FOR KSTP 742 AND KPER 2 TO BUDGET FILE TERMS FROM KSTP 1 AND KPER 2

end timestep


start timestep kper="2" kstp="743" mode="normal"


 FMI SETTING BUDGET TERMS FOR KSTP 743 AND KPER 2 TO BUDGET FILE TERMS FROM KSTP 1 AND KPER 2

 FMI SETTING HEAD FOR KSTP 743 AND KPER 2 TO BINARY FILE HEADS FROM KSTP 1 AND KPER 2

 SFR-1 SETTING BUDGET TERMS FOR KSTP 743 AND KPER 2 TO BUDGET FILE TERMS FROM KSTP 1 AND KPER 2

end timestep


start timestep kper="2" kstp="744" mode="normal"


 FMI SETTING BUDGET TERMS FOR KSTP 744 AND KPER 2 TO BUDGET FILE TERMS FROM KSTP 1 AND KPER 2

 FMI SETTING HEAD FOR KSTP 744 AND KPER 2 TO BINARY FILE HEADS FROM KSTP 1 AND KPER 2

 SFR-1 SETTING BUDGET TERMS FOR KSTP 744 AND KPER 2 TO BUDGET FILE TERMS FROM KSTP 1 AND KPER 2

end timestep


start timestep kper="2" kstp="745" mode="normal"


 FMI SETTING BUDGET TERMS FOR KSTP 745 AND KPER 2 TO BUDGET FILE TERMS FROM KSTP 1 AND KPER 2

 FMI SETTING HEAD FOR KSTP 745 AND KPER 2 TO BINARY FILE HEADS FROM KSTP 1 AND KPER 2

 SFR-1 SETTING BUDGET TERMS FOR KSTP 745 AND KPER 2 TO BUDGET FILE TERMS FROM KSTP 1 AND KPER 2

end timestep


start timestep kper="2" kstp="746" mode="normal"


 FMI SETTING BUDGET TERMS FOR KSTP 746 AND KPER 2 TO BUDGET FILE TERMS FROM KSTP 1 AND KPER 2

 FMI SETTING HEAD FOR KSTP 746 AND KPER 2 TO BINARY FILE HEADS FROM KSTP 1 AND KPER 2

 SFR-1 SETTING BUDGET TERMS FOR KSTP 746 AND KPER 2 TO BUDGET FILE TERMS FROM KSTP 1 AND KPER 2

end timestep


start timestep kper="2" kstp="747" mode="normal"


 FMI SETTING BUDGET TERMS FOR KSTP 747 AND KPER 2 TO BUDGET FILE TERMS FROM KSTP 1 AND KPER 2

 FMI SETTING HEAD FOR KSTP 747 AND KPER 2 TO BINARY FILE HEADS FROM KSTP 1 AND KPER 2

 SFR-1 SETTING BUDGET TERMS FOR KSTP 747 AND KPER 2 TO BUDGET FILE TERMS FROM KSTP 1 AND KPER 2

end timestep


start timestep kper="2" kstp="748" mode="normal"


 FMI SETTING BUDGET TERMS FOR KSTP 748 AND KPER 2 TO BUDGET FILE TERMS FROM KSTP 1 AND KPER 2

 FMI SETTING HEAD FOR KSTP 748 AND KPER 2 TO BINARY FILE HEADS FROM KSTP 1 AND KPER 2

 SFR-1 SETTING BUDGET TERMS FOR KSTP 748 AND KPER 2 TO BUDGET FILE TERMS FROM KSTP 1 AND KPER 2

end timestep


start timestep kper="2" kstp="749" mode="normal"


 FMI SETTING BUDGET TERMS FOR KSTP 749 AND KPER 2 TO BUDGET FILE TERMS FROM KSTP 1 AND KPER 2

 FMI SETTING HEAD FOR KSTP 749 AND KPER 2 TO BINARY FILE HEADS FROM KSTP 1 AND KPER 2

 SFR-1 SETTING BUDGET TERMS FOR KSTP 749 AND KPER 2 TO BUDGET FILE TERMS FROM KSTP 1 AND KPER 2

end timestep


start timestep kper="2" kstp="750" mode="normal"


 FMI SETTING BUDGET TERMS FOR KSTP 750 AND KPER 2 TO BUDGET FILE TERMS FROM KSTP 1 AND KPER 2

 FMI SETTING HEAD FOR KSTP 750 AND KPER 2 TO BINARY FILE HEADS FROM KSTP 1 AND KPER 2

 SFR-1 SETTING BUDGET TERMS FOR KSTP 750 AND KPER 2 TO BUDGET FILE TERMS FROM KSTP 1 AND KPER 2

 CONCENTRATION WILL BE SAVED ON UNIT 1024 AT END OF TIME STEP  750, STRESS PERIOD    2

end timestep


start timestep kper="2" kstp="751" mode="normal"


 FMI SETTING BUDGET TERMS FOR KSTP 751 AND KPER 2 TO BUDGET FILE TERMS FROM KSTP 1 AND KPER 2

 FMI SETTING HEAD FOR KSTP 751 AND KPER 2 TO BINARY FILE HEADS FROM KSTP 1 AND KPER 2

 SFR-1 SETTING BUDGET TERMS FOR KSTP 751 AND KPER 2 TO BUDGET FILE TERMS FROM KSTP 1 AND KPER 2

end timestep


start timestep kper="2" kstp="752" mode="normal"


 FMI SETTING BUDGET TERMS FOR KSTP 752 AND KPER 2 TO BUDGET FILE TERMS FROM KSTP 1 AND KPER 2

 FMI SETTING HEAD FOR KSTP 752 AND KPER 2 TO BINARY FILE HEADS FROM KSTP 1 AND KPER 2

 SFR-1 SETTING BUDGET TERMS FOR KSTP 752 AND KPER 2 TO BUDGET FILE TERMS FROM KSTP 1 AND KPER 2

end timestep


start timestep kper="2" kstp="753" mode="normal"


 FMI SETTING BUDGET TERMS FOR KSTP 753 AND KPER 2 TO BUDGET FILE TERMS FROM KSTP 1 AND KPER 2

 FMI SETTING HEAD FOR KSTP 753 AND KPER 2 TO BINARY FILE HEADS FROM KSTP 1 AND KPER 2

 SFR-1 SETTING BUDGET TERMS FOR KSTP 753 AND KPER 2 TO BUDGET FILE TERMS FROM KSTP 1 AND KPER 2

end timestep


start timestep kper="2" kstp="754" mode="normal"


 FMI SETTING BUDGET TERMS FOR KSTP 754 AND KPER 2 TO BUDGET FILE TERMS FROM KSTP 1 AND KPER 2

 FMI SETTING HEAD FOR KSTP 754 AND KPER 2 TO BINARY FILE HEADS FROM KSTP 1 AND KPER 2

 SFR-1 SETTING BUDGET TERMS FOR KSTP 754 AND KPER 2 TO BUDGET FILE TERMS FROM KSTP 1 AND KPER 2

end timestep


start timestep kper="2" kstp="755" mode="normal"


 FMI SETTING BUDGET TERMS FOR KSTP 755 AND KPER 2 TO BUDGET FILE TERMS FROM KSTP 1 AND KPER 2

 FMI SETTING HEAD FOR KSTP 755 AND KPER 2 TO BINARY FILE HEADS FROM KSTP 1 AND KPER 2

 SFR-1 SETTING BUDGET TERMS FOR KSTP 755 AND KPER 2 TO BUDGET FILE TERMS FROM KSTP 1 AND KPER 2

end timestep


start timestep kper="2" kstp="756" mode="normal"


 FMI SETTING BUDGET TERMS FOR KSTP 756 AND KPER 2 TO BUDGET FILE TERMS FROM KSTP 1 AND KPER 2

 FMI SETTING HEAD FOR KSTP 756 AND KPER 2 TO BINARY FILE HEADS FROM KSTP 1 AND KPER 2

 SFR-1 SETTING BUDGET TERMS FOR KSTP 756 AND KPER 2 TO BUDGET FILE TERMS FROM KSTP 1 AND KPER 2

end timestep


start timestep kper="2" kstp="757" mode="normal"


 FMI SETTING BUDGET TERMS FOR KSTP 757 AND KPER 2 TO BUDGET FILE TERMS FROM KSTP 1 AND KPER 2

 FMI SETTING HEAD FOR KSTP 757 AND KPER 2 TO BINARY FILE HEADS FROM KSTP 1 AND KPER 2

 SFR-1 SETTING BUDGET TERMS FOR KSTP 757 AND KPER 2 TO BUDGET FILE TERMS FROM KSTP 1 AND KPER 2

end timestep


start timestep kper="2" kstp="758" mode="normal"


 FMI SETTING BUDGET TERMS FOR KSTP 758 AND KPER 2 TO BUDGET FILE TERMS FROM KSTP 1 AND KPER 2

 FMI SETTING HEAD FOR KSTP 758 AND KPER 2 TO BINARY FILE HEADS FROM KSTP 1 AND KPER 2

 SFR-1 SETTING BUDGET TERMS FOR KSTP 758 AND KPER 2 TO BUDGET FILE TERMS FROM KSTP 1 AND KPER 2

end timestep


start timestep kper="2" kstp="759" mode="normal"


 FMI SETTING BUDGET TERMS FOR KSTP 759 AND KPER 2 TO BUDGET FILE TERMS FROM KSTP 1 AND KPER 2

 FMI SETTING HEAD FOR KSTP 759 AND KPER 2 TO BINARY FILE HEADS FROM KSTP 1 AND KPER 2

 SFR-1 SETTING BUDGET TERMS FOR KSTP 759 AND KPER 2 TO BUDGET FILE TERMS FROM KSTP 1 AND KPER 2

end timestep


start timestep kper="2" kstp="760" mode="normal"


 FMI SETTING BUDGET TERMS FOR KSTP 760 AND KPER 2 TO BUDGET FILE TERMS FROM KSTP 1 AND KPER 2

 FMI SETTING HEAD FOR KSTP 760 AND KPER 2 TO BINARY FILE HEADS FROM KSTP 1 AND KPER 2

 SFR-1 SETTING BUDGET TERMS FOR KSTP 760 AND KPER 2 TO BUDGET FILE TERMS FROM KSTP 1 AND KPER 2

 CONCENTRATION WILL BE SAVED ON UNIT 1024 AT END OF TIME STEP  760, STRESS PERIOD    2

end timestep


start timestep kper="2" kstp="761" mode="normal"


 FMI SETTING BUDGET TERMS FOR KSTP 761 AND KPER 2 TO BUDGET FILE TERMS FROM KSTP 1 AND KPER 2

 FMI SETTING HEAD FOR KSTP 761 AND KPER 2 TO BINARY FILE HEADS FROM KSTP 1 AND KPER 2

 SFR-1 SETTING BUDGET TERMS FOR KSTP 761 AND KPER 2 TO BUDGET FILE TERMS FROM KSTP 1 AND KPER 2

end timestep


start timestep kper="2" kstp="762" mode="normal"


 FMI SETTING BUDGET TERMS FOR KSTP 762 AND KPER 2 TO BUDGET FILE TERMS FROM KSTP 1 AND KPER 2

 FMI SETTING HEAD FOR KSTP 762 AND KPER 2 TO BINARY FILE HEADS FROM KSTP 1 AND KPER 2

 SFR-1 SETTING BUDGET TERMS FOR KSTP 762 AND KPER 2 TO BUDGET FILE TERMS FROM KSTP 1 AND KPER 2

end timestep


start timestep kper="2" kstp="763" mode="normal"


 FMI SETTING BUDGET TERMS FOR KSTP 763 AND KPER 2 TO BUDGET FILE TERMS FROM KSTP 1 AND KPER 2

 FMI SETTING HEAD FOR KSTP 763 AND KPER 2 TO BINARY FILE HEADS FROM KSTP 1 AND KPER 2

 SFR-1 SETTING BUDGET TERMS FOR KSTP 763 AND KPER 2 TO BUDGET FILE TERMS FROM KSTP 1 AND KPER 2

end timestep


start timestep kper="2" kstp="764" mode="normal"


 FMI SETTING BUDGET TERMS FOR KSTP 764 AND KPER 2 TO BUDGET FILE TERMS FROM KSTP 1 AND KPER 2

 FMI SETTING HEAD FOR KSTP 764 AND KPER 2 TO BINARY FILE HEADS FROM KSTP 1 AND KPER 2

 SFR-1 SETTING BUDGET TERMS FOR KSTP 764 AND KPER 2 TO BUDGET FILE TERMS FROM KSTP 1 AND KPER 2

end timestep


start timestep kper="2" kstp="765" mode="normal"


 FMI SETTING BUDGET TERMS FOR KSTP 765 AND KPER 2 TO BUDGET FILE TERMS FROM KSTP 1 AND KPER 2

 FMI SETTING HEAD FOR KSTP 765 AND KPER 2 TO BINARY FILE HEADS FROM KSTP 1 AND KPER 2

 SFR-1 SETTING BUDGET TERMS FOR KSTP 765 AND KPER 2 TO BUDGET FILE TERMS FROM KSTP 1 AND KPER 2

end timestep


start timestep kper="2" kstp="766" mode="normal"


 FMI SETTING BUDGET TERMS FOR KSTP 766 AND KPER 2 TO BUDGET FILE TERMS FROM KSTP 1 AND KPER 2

 FMI SETTING HEAD FOR KSTP 766 AND KPER 2 TO BINARY FILE HEADS FROM KSTP 1 AND KPER 2

 SFR-1 SETTING BUDGET TERMS FOR KSTP 766 AND KPER 2 TO BUDGET FILE TERMS FROM KSTP 1 AND KPER 2

end timestep


start timestep kper="2" kstp="767" mode="normal"


 FMI SETTING BUDGET TERMS FOR KSTP 767 AND KPER 2 TO BUDGET FILE TERMS FROM KSTP 1 AND KPER 2

 FMI SETTING HEAD FOR KSTP 767 AND KPER 2 TO BINARY FILE HEADS FROM KSTP 1 AND KPER 2

 SFR-1 SETTING BUDGET TERMS FOR KSTP 767 AND KPER 2 TO BUDGET FILE TERMS FROM KSTP 1 AND KPER 2

end timestep


start timestep kper="2" kstp="768" mode="normal"


 FMI SETTING BUDGET TERMS FOR KSTP 768 AND KPER 2 TO BUDGET FILE TERMS FROM KSTP 1 AND KPER 2

 FMI SETTING HEAD FOR KSTP 768 AND KPER 2 TO BINARY FILE HEADS FROM KSTP 1 AND KPER 2

 SFR-1 SETTING BUDGET TERMS FOR KSTP 768 AND KPER 2 TO BUDGET FILE TERMS FROM KSTP 1 AND KPER 2

end timestep


start timestep kper="2" kstp="769" mode="normal"


 FMI SETTING BUDGET TERMS FOR KSTP 769 AND KPER 2 TO BUDGET FILE TERMS FROM KSTP 1 AND KPER 2

 FMI SETTING HEAD FOR KSTP 769 AND KPER 2 TO BINARY FILE HEADS FROM KSTP 1 AND KPER 2

 SFR-1 SETTING BUDGET TERMS FOR KSTP 769 AND KPER 2 TO BUDGET FILE TERMS FROM KSTP 1 AND KPER 2

end timestep


start timestep kper="2" kstp="770" mode="normal"


 FMI SETTING BUDGET TERMS FOR KSTP 770 AND KPER 2 TO BUDGET FILE TERMS FROM KSTP 1 AND KPER 2

 FMI SETTING HEAD FOR KSTP 770 AND KPER 2 TO BINARY FILE HEADS FROM KSTP 1 AND KPER 2

 SFR-1 SETTING BUDGET TERMS FOR KSTP 770 AND KPER 2 TO BUDGET FILE TERMS FROM KSTP 1 AND KPER 2

 CONCENTRATION WILL BE SAVED ON UNIT 1024 AT END OF TIME STEP  770, STRESS PERIOD    2

end timestep


start timestep kper="2" kstp="771" mode="normal"


 FMI SETTING BUDGET TERMS FOR KSTP 771 AND KPER 2 TO BUDGET FILE TERMS FROM KSTP 1 AND KPER 2

 FMI SETTING HEAD FOR KSTP 771 AND KPER 2 TO BINARY FILE HEADS FROM KSTP 1 AND KPER 2

 SFR-1 SETTING BUDGET TERMS FOR KSTP 771 AND KPER 2 TO BUDGET FILE TERMS FROM KSTP 1 AND KPER 2

end timestep


start timestep kper="2" kstp="772" mode="normal"


 FMI SETTING BUDGET TERMS FOR KSTP 772 AND KPER 2 TO BUDGET FILE TERMS FROM KSTP 1 AND KPER 2

 FMI SETTING HEAD FOR KSTP 772 AND KPER 2 TO BINARY FILE HEADS FROM KSTP 1 AND KPER 2

 SFR-1 SETTING BUDGET TERMS FOR KSTP 772 AND KPER 2 TO BUDGET FILE TERMS FROM KSTP 1 AND KPER 2

end timestep


start timestep kper="2" kstp="773" mode="normal"


 FMI SETTING BUDGET TERMS FOR KSTP 773 AND KPER 2 TO BUDGET FILE TERMS FROM KSTP 1 AND KPER 2

 FMI SETTING HEAD FOR KSTP 773 AND KPER 2 TO BINARY FILE HEADS FROM KSTP 1 AND KPER 2

 SFR-1 SETTING BUDGET TERMS FOR KSTP 773 AND KPER 2 TO BUDGET FILE TERMS FROM KSTP 1 AND KPER 2

end timestep


start timestep kper="2" kstp="774" mode="normal"


 FMI SETTING BUDGET TERMS FOR KSTP 774 AND KPER 2 TO BUDGET FILE TERMS FROM KSTP 1 AND KPER 2

 FMI SETTING HEAD FOR KSTP 774 AND KPER 2 TO BINARY FILE HEADS FROM KSTP 1 AND KPER 2

 SFR-1 SETTING BUDGET TERMS FOR KSTP 774 AND KPER 2 TO BUDGET FILE TERMS FROM KSTP 1 AND KPER 2

end timestep


start timestep kper="2" kstp="775" mode="normal"


 FMI SETTING BUDGET TERMS FOR KSTP 775 AND KPER 2 TO BUDGET FILE TERMS FROM KSTP 1 AND KPER 2

 FMI SETTING HEAD FOR KSTP 775 AND KPER 2 TO BINARY FILE HEADS FROM KSTP 1 AND KPER 2

 SFR-1 SETTING BUDGET TERMS FOR KSTP 775 AND KPER 2 TO BUDGET FILE TERMS FROM KSTP 1 AND KPER 2

end timestep


start timestep kper="2" kstp="776" mode="normal"


 FMI SETTING BUDGET TERMS FOR KSTP 776 AND KPER 2 TO BUDGET FILE TERMS FROM KSTP 1 AND KPER 2

 FMI SETTING HEAD FOR KSTP 776 AND KPER 2 TO BINARY FILE HEADS FROM KSTP 1 AND KPER 2

 SFR-1 SETTING BUDGET TERMS FOR KSTP 776 AND KPER 2 TO BUDGET FILE TERMS FROM KSTP 1 AND KPER 2

end timestep


start timestep kper="2" kstp="777" mode="normal"


 FMI SETTING BUDGET TERMS FOR KSTP 777 AND KPER 2 TO BUDGET FILE TERMS FROM KSTP 1 AND KPER 2

 FMI SETTING HEAD FOR KSTP 777 AND KPER 2 TO BINARY FILE HEADS FROM KSTP 1 AND KPER 2

 SFR-1 SETTING BUDGET TERMS FOR KSTP 777 AND KPER 2 TO BUDGET FILE TERMS FROM KSTP 1 AND KPER 2

end timestep


start timestep kper="2" kstp="778" mode="normal"


 FMI SETTING BUDGET TERMS FOR KSTP 778 AND KPER 2 TO BUDGET FILE TERMS FROM KSTP 1 AND KPER 2

 FMI SETTING HEAD FOR KSTP 778 AND KPER 2 TO BINARY FILE HEADS FROM KSTP 1 AND KPER 2

 SFR-1 SETTING BUDGET TERMS FOR KSTP 778 AND KPER 2 TO BUDGET FILE TERMS FROM KSTP 1 AND KPER 2

end timestep


start timestep kper="2" kstp="779" mode="normal"


 FMI SETTING BUDGET TERMS FOR KSTP 779 AND KPER 2 TO BUDGET FILE TERMS FROM KSTP 1 AND KPER 2

 FMI SETTING HEAD FOR KSTP 779 AND KPER 2 TO BINARY FILE HEADS FROM KSTP 1 AND KPER 2

 SFR-1 SETTING BUDGET TERMS FOR KSTP 779 AND KPER 2 TO BUDGET FILE TERMS FROM KSTP 1 AND KPER 2

end timestep


start timestep kper="2" kstp="780" mode="normal"


 FMI SETTING BUDGET TERMS FOR KSTP 780 AND KPER 2 TO BUDGET FILE TERMS FROM KSTP 1 AND KPER 2

 FMI SETTING HEAD FOR KSTP 780 AND KPER 2 TO BINARY FILE HEADS FROM KSTP 1 AND KPER 2

 SFR-1 SETTING BUDGET TERMS FOR KSTP 780 AND KPER 2 TO BUDGET FILE TERMS FROM KSTP 1 AND KPER 2

 CONCENTRATION WILL BE SAVED ON UNIT 1024 AT END OF TIME STEP  780, STRESS PERIOD    2

end timestep


start timestep kper="2" kstp="781" mode="normal"


 FMI SETTING BUDGET TERMS FOR KSTP 781 AND KPER 2 TO BUDGET FILE TERMS FROM KSTP 1 AND KPER 2

 FMI SETTING HEAD FOR KSTP 781 AND KPER 2 TO BINARY FILE HEADS FROM KSTP 1 AND KPER 2

 SFR-1 SETTING BUDGET TERMS FOR KSTP 781 AND KPER 2 TO BUDGET FILE TERMS FROM KSTP 1 AND KPER 2

end timestep


start timestep kper="2" kstp="782" mode="normal"


 FMI SETTING BUDGET TERMS FOR KSTP 782 AND KPER 2 TO BUDGET FILE TERMS FROM KSTP 1 AND KPER 2

 FMI SETTING HEAD FOR KSTP 782 AND KPER 2 TO BINARY FILE HEADS FROM KSTP 1 AND KPER 2

 SFR-1 SETTING BUDGET TERMS FOR KSTP 782 AND KPER 2 TO BUDGET FILE TERMS FROM KSTP 1 AND KPER 2

end timestep


start timestep kper="2" kstp="783" mode="normal"


 FMI SETTING BUDGET TERMS FOR KSTP 783 AND KPER 2 TO BUDGET FILE TERMS FROM KSTP 1 AND KPER 2

 FMI SETTING HEAD FOR KSTP 783 AND KPER 2 TO BINARY FILE HEADS FROM KSTP 1 AND KPER 2

 SFR-1 SETTING BUDGET TERMS FOR KSTP 783 AND KPER 2 TO BUDGET FILE TERMS FROM KSTP 1 AND KPER 2

end timestep


start timestep kper="2" kstp="784" mode="normal"


 FMI SETTING BUDGET TERMS FOR KSTP 784 AND KPER 2 TO BUDGET FILE TERMS FROM KSTP 1 AND KPER 2

 FMI SETTING HEAD FOR KSTP 784 AND KPER 2 TO BINARY FILE HEADS FROM KSTP 1 AND KPER 2

 SFR-1 SETTING BUDGET TERMS FOR KSTP 784 AND KPER 2 TO BUDGET FILE TERMS FROM KSTP 1 AND KPER 2

end timestep


start timestep kper="2" kstp="785" mode="normal"


 FMI SETTING BUDGET TERMS FOR KSTP 785 AND KPER 2 TO BUDGET FILE TERMS FROM KSTP 1 AND KPER 2

 FMI SETTING HEAD FOR KSTP 785 AND KPER 2 TO BINARY FILE HEADS FROM KSTP 1 AND KPER 2

 SFR-1 SETTING BUDGET TERMS FOR KSTP 785 AND KPER 2 TO BUDGET FILE TERMS FROM KSTP 1 AND KPER 2

end timestep


start timestep kper="2" kstp="786" mode="normal"


 FMI SETTING BUDGET TERMS FOR KSTP 786 AND KPER 2 TO BUDGET FILE TERMS FROM KSTP 1 AND KPER 2

 FMI SETTING HEAD FOR KSTP 786 AND KPER 2 TO BINARY FILE HEADS FROM KSTP 1 AND KPER 2

 SFR-1 SETTING BUDGET TERMS FOR KSTP 786 AND KPER 2 TO BUDGET FILE TERMS FROM KSTP 1 AND KPER 2

end timestep


start timestep kper="2" kstp="787" mode="normal"


 FMI SETTING BUDGET TERMS FOR KSTP 787 AND KPER 2 TO BUDGET FILE TERMS FROM KSTP 1 AND KPER 2

 FMI SETTING HEAD FOR KSTP 787 AND KPER 2 TO BINARY FILE HEADS FROM KSTP 1 AND KPER 2

 SFR-1 SETTING BUDGET TERMS FOR KSTP 787 AND KPER 2 TO BUDGET FILE TERMS FROM KSTP 1 AND KPER 2

end timestep


start timestep kper="2" kstp="788" mode="normal"


 FMI SETTING BUDGET TERMS FOR KSTP 788 AND KPER 2 TO BUDGET FILE TERMS FROM KSTP 1 AND KPER 2

 FMI SETTING HEAD FOR KSTP 788 AND KPER 2 TO BINARY FILE HEADS FROM KSTP 1 AND KPER 2

 SFR-1 SETTING BUDGET TERMS FOR KSTP 788 AND KPER 2 TO BUDGET FILE TERMS FROM KSTP 1 AND KPER 2

end timestep


start timestep kper="2" kstp="789" mode="normal"


 FMI SETTING BUDGET TERMS FOR KSTP 789 AND KPER 2 TO BUDGET FILE TERMS FROM KSTP 1 AND KPER 2

 FMI SETTING HEAD FOR KSTP 789 AND KPER 2 TO BINARY FILE HEADS FROM KSTP 1 AND KPER 2

 SFR-1 SETTING BUDGET TERMS FOR KSTP 789 AND KPER 2 TO BUDGET FILE TERMS FROM KSTP 1 AND KPER 2

end timestep


start timestep kper="2" kstp="790" mode="normal"


 FMI SETTING BUDGET TERMS FOR KSTP 790 AND KPER 2 TO BUDGET FILE TERMS FROM KSTP 1 AND KPER 2

 FMI SETTING HEAD FOR KSTP 790 AND KPER 2 TO BINARY FILE HEADS FROM KSTP 1 AND KPER 2

 SFR-1 SETTING BUDGET TERMS FOR KSTP 790 AND KPER 2 TO BUDGET FILE TERMS FROM KSTP 1 AND KPER 2

 CONCENTRATION WILL BE SAVED ON UNIT 1024 AT END OF TIME STEP  790, STRESS PERIOD    2

end timestep


start timestep kper="2" kstp="791" mode="normal"


 FMI SETTING BUDGET TERMS FOR KSTP 791 AND KPER 2 TO BUDGET FILE TERMS FROM KSTP 1 AND KPER 2

 FMI SETTING HEAD FOR KSTP 791 AND KPER 2 TO BINARY FILE HEADS FROM KSTP 1 AND KPER 2

 SFR-1 SETTING BUDGET TERMS FOR KSTP 791 AND KPER 2 TO BUDGET FILE TERMS FROM KSTP 1 AND KPER 2

end timestep


start timestep kper="2" kstp="792" mode="normal"


 FMI SETTING BUDGET TERMS FOR KSTP 792 AND KPER 2 TO BUDGET FILE TERMS FROM KSTP 1 AND KPER 2

 FMI SETTING HEAD FOR KSTP 792 AND KPER 2 TO BINARY FILE HEADS FROM KSTP 1 AND KPER 2

 SFR-1 SETTING BUDGET TERMS FOR KSTP 792 AND KPER 2 TO BUDGET FILE TERMS FROM KSTP 1 AND KPER 2

end timestep


start timestep kper="2" kstp="793" mode="normal"


 FMI SETTING BUDGET TERMS FOR KSTP 793 AND KPER 2 TO BUDGET FILE TERMS FROM KSTP 1 AND KPER 2

 FMI SETTING HEAD FOR KSTP 793 AND KPER 2 TO BINARY FILE HEADS FROM KSTP 1 AND KPER 2

 SFR-1 SETTING BUDGET TERMS FOR KSTP 793 AND KPER 2 TO BUDGET FILE TERMS FROM KSTP 1 AND KPER 2

end timestep


start timestep kper="2" kstp="794" mode="normal"


 FMI SETTING BUDGET TERMS FOR KSTP 794 AND KPER 2 TO BUDGET FILE TERMS FROM KSTP 1 AND KPER 2

 FMI SETTING HEAD FOR KSTP 794 AND KPER 2 TO BINARY FILE HEADS FROM KSTP 1 AND KPER 2

 SFR-1 SETTING BUDGET TERMS FOR KSTP 794 AND KPER 2 TO BUDGET FILE TERMS FROM KSTP 1 AND KPER 2

end timestep


start timestep kper="2" kstp="795" mode="normal"


 FMI SETTING BUDGET TERMS FOR KSTP 795 AND KPER 2 TO BUDGET FILE TERMS FROM KSTP 1 AND KPER 2

 FMI SETTING HEAD FOR KSTP 795 AND KPER 2 TO BINARY FILE HEADS FROM KSTP 1 AND KPER 2

 SFR-1 SETTING BUDGET TERMS FOR KSTP 795 AND KPER 2 TO BUDGET FILE TERMS FROM KSTP 1 AND KPER 2

end timestep


start timestep kper="2" kstp="796" mode="normal"


 FMI SETTING BUDGET TERMS FOR KSTP 796 AND KPER 2 TO BUDGET FILE TERMS FROM KSTP 1 AND KPER 2

 FMI SETTING HEAD FOR KSTP 796 AND KPER 2 TO BINARY FILE HEADS FROM KSTP 1 AND KPER 2

 SFR-1 SETTING BUDGET TERMS FOR KSTP 796 AND KPER 2 TO BUDGET FILE TERMS FROM KSTP 1 AND KPER 2

end timestep


start timestep kper="2" kstp="797" mode="normal"


 FMI SETTING BUDGET TERMS FOR KSTP 797 AND KPER 2 TO BUDGET FILE TERMS FROM KSTP 1 AND KPER 2

 FMI SETTING HEAD FOR KSTP 797 AND KPER 2 TO BINARY FILE HEADS FROM KSTP 1 AND KPER 2

 SFR-1 SETTING BUDGET TERMS FOR KSTP 797 AND KPER 2 TO BUDGET FILE TERMS FROM KSTP 1 AND KPER 2

end timestep


start timestep kper="2" kstp="798" mode="normal"


 FMI SETTING BUDGET TERMS FOR KSTP 798 AND KPER 2 TO BUDGET FILE TERMS FROM KSTP 1 AND KPER 2

 FMI SETTING HEAD FOR KSTP 798 AND KPER 2 TO BINARY FILE HEADS FROM KSTP 1 AND KPER 2

 SFR-1 SETTING BUDGET TERMS FOR KSTP 798 AND KPER 2 TO BUDGET FILE TERMS FROM KSTP 1 AND KPER 2

end timestep


start timestep kper="2" kstp="799" mode="normal"


 FMI SETTING BUDGET TERMS FOR KSTP 799 AND KPER 2 TO BUDGET FILE TERMS FROM KSTP 1 AND KPER 2

 FMI SETTING HEAD FOR KSTP 799 AND KPER 2 TO BINARY FILE HEADS FROM KSTP 1 AND KPER 2

 SFR-1 SETTING BUDGET TERMS FOR KSTP 799 AND KPER 2 TO BUDGET FILE TERMS FROM KSTP 1 AND KPER 2

end timestep


start timestep kper="2" kstp="800" mode="normal"


 FMI SETTING BUDGET TERMS FOR KSTP 800 AND KPER 2 TO BUDGET FILE TERMS FROM KSTP 1 AND KPER 2

 FMI SETTING HEAD FOR KSTP 800 AND KPER 2 TO BINARY FILE HEADS FROM KSTP 1 AND KPER 2

 SFR-1 SETTING BUDGET TERMS FOR KSTP 800 AND KPER 2 TO BUDGET FILE TERMS FROM KSTP 1 AND KPER 2

 CONCENTRATION WILL BE SAVED ON UNIT 1024 AT END OF TIME STEP  800, STRESS PERIOD    2

end timestep


start timestep kper="2" kstp="801" mode="normal"


 FMI SETTING BUDGET TERMS FOR KSTP 801 AND KPER 2 TO BUDGET FILE TERMS FROM KSTP 1 AND KPER 2

 FMI SETTING HEAD FOR KSTP 801 AND KPER 2 TO BINARY FILE HEADS FROM KSTP 1 AND KPER 2

 SFR-1 SETTING BUDGET TERMS FOR KSTP 801 AND KPER 2 TO BUDGET FILE TERMS FROM KSTP 1 AND KPER 2

end timestep


start timestep kper="2" kstp="802" mode="normal"


 FMI SETTING BUDGET TERMS FOR KSTP 802 AND KPER 2 TO BUDGET FILE TERMS FROM KSTP 1 AND KPER 2

 FMI SETTING HEAD FOR KSTP 802 AND KPER 2 TO BINARY FILE HEADS FROM KSTP 1 AND KPER 2

 SFR-1 SETTING BUDGET TERMS FOR KSTP 802 AND KPER 2 TO BUDGET FILE TERMS FROM KSTP 1 AND KPER 2

end timestep


start timestep kper="2" kstp="803" mode="normal"


 FMI SETTING BUDGET TERMS FOR KSTP 803 AND KPER 2 TO BUDGET FILE TERMS FROM KSTP 1 AND KPER 2

 FMI SETTING HEAD FOR KSTP 803 AND KPER 2 TO BINARY FILE HEADS FROM KSTP 1 AND KPER 2

 SFR-1 SETTING BUDGET TERMS FOR KSTP 803 AND KPER 2 TO BUDGET FILE TERMS FROM KSTP 1 AND KPER 2

end timestep


start timestep kper="2" kstp="804" mode="normal"


 FMI SETTING BUDGET TERMS FOR KSTP 804 AND KPER 2 TO BUDGET FILE TERMS FROM KSTP 1 AND KPER 2

 FMI SETTING HEAD FOR KSTP 804 AND KPER 2 TO BINARY FILE HEADS FROM KSTP 1 AND KPER 2

 SFR-1 SETTING BUDGET TERMS FOR KSTP 804 AND KPER 2 TO BUDGET FILE TERMS FROM KSTP 1 AND KPER 2

end timestep


start timestep kper="2" kstp="805" mode="normal"


 FMI SETTING BUDGET TERMS FOR KSTP 805 AND KPER 2 TO BUDGET FILE TERMS FROM KSTP 1 AND KPER 2

 FMI SETTING HEAD FOR KSTP 805 AND KPER 2 TO BINARY FILE HEADS FROM KSTP 1 AND KPER 2

 SFR-1 SETTING BUDGET TERMS FOR KSTP 805 AND KPER 2 TO BUDGET FILE TERMS FROM KSTP 1 AND KPER 2

end timestep


start timestep kper="2" kstp="806" mode="normal"


 FMI SETTING BUDGET TERMS FOR KSTP 806 AND KPER 2 TO BUDGET FILE TERMS FROM KSTP 1 AND KPER 2

 FMI SETTING HEAD FOR KSTP 806 AND KPER 2 TO BINARY FILE HEADS FROM KSTP 1 AND KPER 2

 SFR-1 SETTING BUDGET TERMS FOR KSTP 806 AND KPER 2 TO BUDGET FILE TERMS FROM KSTP 1 AND KPER 2

end timestep


start timestep kper="2" kstp="807" mode="normal"


 FMI SETTING BUDGET TERMS FOR KSTP 807 AND KPER 2 TO BUDGET FILE TERMS FROM KSTP 1 AND KPER 2

 FMI SETTING HEAD FOR KSTP 807 AND KPER 2 TO BINARY FILE HEADS FROM KSTP 1 AND KPER 2

 SFR-1 SETTING BUDGET TERMS FOR KSTP 807 AND KPER 2 TO BUDGET FILE TERMS FROM KSTP 1 AND KPER 2

end timestep


start timestep kper="2" kstp="808" mode="normal"


 FMI SETTING BUDGET TERMS FOR KSTP 808 AND KPER 2 TO BUDGET FILE TERMS FROM KSTP 1 AND KPER 2

 FMI SETTING HEAD FOR KSTP 808 AND KPER 2 TO BINARY FILE HEADS FROM KSTP 1 AND KPER 2

 SFR-1 SETTING BUDGET TERMS FOR KSTP 808 AND KPER 2 TO BUDGET FILE TERMS FROM KSTP 1 AND KPER 2

end timestep


start timestep kper="2" kstp="809" mode="normal"


 FMI SETTING BUDGET TERMS FOR KSTP 809 AND KPER 2 TO BUDGET FILE TERMS FROM KSTP 1 AND KPER 2

 FMI SETTING HEAD FOR KSTP 809 AND KPER 2 TO BINARY FILE HEADS FROM KSTP 1 AND KPER 2

 SFR-1 SETTING BUDGET TERMS FOR KSTP 809 AND KPER 2 TO BUDGET FILE TERMS FROM KSTP 1 AND KPER 2

end timestep


start timestep kper="2" kstp="810" mode="normal"


 FMI SETTING BUDGET TERMS FOR KSTP 810 AND KPER 2 TO BUDGET FILE TERMS FROM KSTP 1 AND KPER 2

 FMI SETTING HEAD FOR KSTP 810 AND KPER 2 TO BINARY FILE HEADS FROM KSTP 1 AND KPER 2

 SFR-1 SETTING BUDGET TERMS FOR KSTP 810 AND KPER 2 TO BUDGET FILE TERMS FROM KSTP 1 AND KPER 2

 CONCENTRATION WILL BE SAVED ON UNIT 1024 AT END OF TIME STEP  810, STRESS PERIOD    2

end timestep


start timestep kper="2" kstp="811" mode="normal"


 FMI SETTING BUDGET TERMS FOR KSTP 811 AND KPER 2 TO BUDGET FILE TERMS FROM KSTP 1 AND KPER 2

 FMI SETTING HEAD FOR KSTP 811 AND KPER 2 TO BINARY FILE HEADS FROM KSTP 1 AND KPER 2

 SFR-1 SETTING BUDGET TERMS FOR KSTP 811 AND KPER 2 TO BUDGET FILE TERMS FROM KSTP 1 AND KPER 2

end timestep


start timestep kper="2" kstp="812" mode="normal"


 FMI SETTING BUDGET TERMS FOR KSTP 812 AND KPER 2 TO BUDGET FILE TERMS FROM KSTP 1 AND KPER 2

 FMI SETTING HEAD FOR KSTP 812 AND KPER 2 TO BINARY FILE HEADS FROM KSTP 1 AND KPER 2

 SFR-1 SETTING BUDGET TERMS FOR KSTP 812 AND KPER 2 TO BUDGET FILE TERMS FROM KSTP 1 AND KPER 2

end timestep


start timestep kper="2" kstp="813" mode="normal"


 FMI SETTING BUDGET TERMS FOR KSTP 813 AND KPER 2 TO BUDGET FILE TERMS FROM KSTP 1 AND KPER 2

 FMI SETTING HEAD FOR KSTP 813 AND KPER 2 TO BINARY FILE HEADS FROM KSTP 1 AND KPER 2

 SFR-1 SETTING BUDGET TERMS FOR KSTP 813 AND KPER 2 TO BUDGET FILE TERMS FROM KSTP 1 AND KPER 2

end timestep


start timestep kper="2" kstp="814" mode="normal"


 FMI SETTING BUDGET TERMS FOR KSTP 814 AND KPER 2 TO BUDGET FILE TERMS FROM KSTP 1 AND KPER 2

 FMI SETTING HEAD FOR KSTP 814 AND KPER 2 TO BINARY FILE HEADS FROM KSTP 1 AND KPER 2

 SFR-1 SETTING BUDGET TERMS FOR KSTP 814 AND KPER 2 TO BUDGET FILE TERMS FROM KSTP 1 AND KPER 2

end timestep


start timestep kper="2" kstp="815" mode="normal"


 FMI SETTING BUDGET TERMS FOR KSTP 815 AND KPER 2 TO BUDGET FILE TERMS FROM KSTP 1 AND KPER 2

 FMI SETTING HEAD FOR KSTP 815 AND KPER 2 TO BINARY FILE HEADS FROM KSTP 1 AND KPER 2

 SFR-1 SETTING BUDGET TERMS FOR KSTP 815 AND KPER 2 TO BUDGET FILE TERMS FROM KSTP 1 AND KPER 2

end timestep


start timestep kper="2" kstp="816" mode="normal"


 FMI SETTING BUDGET TERMS FOR KSTP 816 AND KPER 2 TO BUDGET FILE TERMS FROM KSTP 1 AND KPER 2

 FMI SETTING HEAD FOR KSTP 816 AND KPER 2 TO BINARY FILE HEADS FROM KSTP 1 AND KPER 2

 SFR-1 SETTING BUDGET TERMS FOR KSTP 816 AND KPER 2 TO BUDGET FILE TERMS FROM KSTP 1 AND KPER 2

end timestep


start timestep kper="2" kstp="817" mode="normal"


 FMI SETTING BUDGET TERMS FOR KSTP 817 AND KPER 2 TO BUDGET FILE TERMS FROM KSTP 1 AND KPER 2

 FMI SETTING HEAD FOR KSTP 817 AND KPER 2 TO BINARY FILE HEADS FROM KSTP 1 AND KPER 2

 SFR-1 SETTING BUDGET TERMS FOR KSTP 817 AND KPER 2 TO BUDGET FILE TERMS FROM KSTP 1 AND KPER 2

end timestep


start timestep kper="2" kstp="818" mode="normal"


 FMI SETTING BUDGET TERMS FOR KSTP 818 AND KPER 2 TO BUDGET FILE TERMS FROM KSTP 1 AND KPER 2

 FMI SETTING HEAD FOR KSTP 818 AND KPER 2 TO BINARY FILE HEADS FROM KSTP 1 AND KPER 2

 SFR-1 SETTING BUDGET TERMS FOR KSTP 818 AND KPER 2 TO BUDGET FILE TERMS FROM KSTP 1 AND KPER 2

end timestep


start timestep kper="2" kstp="819" mode="normal"


 FMI SETTING BUDGET TERMS FOR KSTP 819 AND KPER 2 TO BUDGET FILE TERMS FROM KSTP 1 AND KPER 2

 FMI SETTING HEAD FOR KSTP 819 AND KPER 2 TO BINARY FILE HEADS FROM KSTP 1 AND KPER 2

 SFR-1 SETTING BUDGET TERMS FOR KSTP 819 AND KPER 2 TO BUDGET FILE TERMS FROM KSTP 1 AND KPER 2

end timestep


start timestep kper="2" kstp="820" mode="normal"


 FMI SETTING BUDGET TERMS FOR KSTP 820 AND KPER 2 TO BUDGET FILE TERMS FROM KSTP 1 AND KPER 2

 FMI SETTING HEAD FOR KSTP 820 AND KPER 2 TO BINARY FILE HEADS FROM KSTP 1 AND KPER 2

 SFR-1 SETTING BUDGET TERMS FOR KSTP 820 AND KPER 2 TO BUDGET FILE TERMS FROM KSTP 1 AND KPER 2

 CONCENTRATION WILL BE SAVED ON UNIT 1024 AT END OF TIME STEP  820, STRESS PERIOD    2

end timestep


start timestep kper="2" kstp="821" mode="normal"


 FMI SETTING BUDGET TERMS FOR KSTP 821 AND KPER 2 TO BUDGET FILE TERMS FROM KSTP 1 AND KPER 2

 FMI SETTING HEAD FOR KSTP 821 AND KPER 2 TO BINARY FILE HEADS FROM KSTP 1 AND KPER 2

 SFR-1 SETTING BUDGET TERMS FOR KSTP 821 AND KPER 2 TO BUDGET FILE TERMS FROM KSTP 1 AND KPER 2

end timestep


start timestep kper="2" kstp="822" mode="normal"


 FMI SETTING BUDGET TERMS FOR KSTP 822 AND KPER 2 TO BUDGET FILE TERMS FROM KSTP 1 AND KPER 2

 FMI SETTING HEAD FOR KSTP 822 AND KPER 2 TO BINARY FILE HEADS FROM KSTP 1 AND KPER 2

 SFR-1 SETTING BUDGET TERMS FOR KSTP 822 AND KPER 2 TO BUDGET FILE TERMS FROM KSTP 1 AND KPER 2

end timestep


start timestep kper="2" kstp="823" mode="normal"


 FMI SETTING BUDGET TERMS FOR KSTP 823 AND KPER 2 TO BUDGET FILE TERMS FROM KSTP 1 AND KPER 2

 FMI SETTING HEAD FOR KSTP 823 AND KPER 2 TO BINARY FILE HEADS FROM KSTP 1 AND KPER 2

 SFR-1 SETTING BUDGET TERMS FOR KSTP 823 AND KPER 2 TO BUDGET FILE TERMS FROM KSTP 1 AND KPER 2

end timestep


start timestep kper="2" kstp="824" mode="normal"


 FMI SETTING BUDGET TERMS FOR KSTP 824 AND KPER 2 TO BUDGET FILE TERMS FROM KSTP 1 AND KPER 2

 FMI SETTING HEAD FOR KSTP 824 AND KPER 2 TO BINARY FILE HEADS FROM KSTP 1 AND KPER 2

 SFR-1 SETTING BUDGET TERMS FOR KSTP 824 AND KPER 2 TO BUDGET FILE TERMS FROM KSTP 1 AND KPER 2

end timestep


start timestep kper="2" kstp="825" mode="normal"


 FMI SETTING BUDGET TERMS FOR KSTP 825 AND KPER 2 TO BUDGET FILE TERMS FROM KSTP 1 AND KPER 2

 FMI SETTING HEAD FOR KSTP 825 AND KPER 2 TO BINARY FILE HEADS FROM KSTP 1 AND KPER 2

 SFR-1 SETTING BUDGET TERMS FOR KSTP 825 AND KPER 2 TO BUDGET FILE TERMS FROM KSTP 1 AND KPER 2

end timestep


start timestep kper="2" kstp="826" mode="normal"


 FMI SETTING BUDGET TERMS FOR KSTP 826 AND KPER 2 TO BUDGET FILE TERMS FROM KSTP 1 AND KPER 2

 FMI SETTING HEAD FOR KSTP 826 AND KPER 2 TO BINARY FILE HEADS FROM KSTP 1 AND KPER 2

 SFR-1 SETTING BUDGET TERMS FOR KSTP 826 AND KPER 2 TO BUDGET FILE TERMS FROM KSTP 1 AND KPER 2

end timestep


start timestep kper="2" kstp="827" mode="normal"


 FMI SETTING BUDGET TERMS FOR KSTP 827 AND KPER 2 TO BUDGET FILE TERMS FROM KSTP 1 AND KPER 2

 FMI SETTING HEAD FOR KSTP 827 AND KPER 2 TO BINARY FILE HEADS FROM KSTP 1 AND KPER 2

 SFR-1 SETTING BUDGET TERMS FOR KSTP 827 AND KPER 2 TO BUDGET FILE TERMS FROM KSTP 1 AND KPER 2

end timestep


start timestep kper="2" kstp="828" mode="normal"


 FMI SETTING BUDGET TERMS FOR KSTP 828 AND KPER 2 TO BUDGET FILE TERMS FROM KSTP 1 AND KPER 2

 FMI SETTING HEAD FOR KSTP 828 AND KPER 2 TO BINARY FILE HEADS FROM KSTP 1 AND KPER 2

 SFR-1 SETTING BUDGET TERMS FOR KSTP 828 AND KPER 2 TO BUDGET FILE TERMS FROM KSTP 1 AND KPER 2

end timestep


start timestep kper="2" kstp="829" mode="normal"


 FMI SETTING BUDGET TERMS FOR KSTP 829 AND KPER 2 TO BUDGET FILE TERMS FROM KSTP 1 AND KPER 2

 FMI SETTING HEAD FOR KSTP 829 AND KPER 2 TO BINARY FILE HEADS FROM KSTP 1 AND KPER 2

 SFR-1 SETTING BUDGET TERMS FOR KSTP 829 AND KPER 2 TO BUDGET FILE TERMS FROM KSTP 1 AND KPER 2

end timestep


start timestep kper="2" kstp="830" mode="normal"


 FMI SETTING BUDGET TERMS FOR KSTP 830 AND KPER 2 TO BUDGET FILE TERMS FROM KSTP 1 AND KPER 2

 FMI SETTING HEAD FOR KSTP 830 AND KPER 2 TO BINARY FILE HEADS FROM KSTP 1 AND KPER 2

 SFR-1 SETTING BUDGET TERMS FOR KSTP 830 AND KPER 2 TO BUDGET FILE TERMS FROM KSTP 1 AND KPER 2

 CONCENTRATION WILL BE SAVED ON UNIT 1024 AT END OF TIME STEP  830, STRESS PERIOD    2

end timestep


start timestep kper="2" kstp="831" mode="normal"


 FMI SETTING BUDGET TERMS FOR KSTP 831 AND KPER 2 TO BUDGET FILE TERMS FROM KSTP 1 AND KPER 2

 FMI SETTING HEAD FOR KSTP 831 AND KPER 2 TO BINARY FILE HEADS FROM KSTP 1 AND KPER 2

 SFR-1 SETTING BUDGET TERMS FOR KSTP 831 AND KPER 2 TO BUDGET FILE TERMS FROM KSTP 1 AND KPER 2

end timestep


start timestep kper="2" kstp="832" mode="normal"


 FMI SETTING BUDGET TERMS FOR KSTP 832 AND KPER 2 TO BUDGET FILE TERMS FROM KSTP 1 AND KPER 2

 FMI SETTING HEAD FOR KSTP 832 AND KPER 2 TO BINARY FILE HEADS FROM KSTP 1 AND KPER 2

 SFR-1 SETTING BUDGET TERMS FOR KSTP 832 AND KPER 2 TO BUDGET FILE TERMS FROM KSTP 1 AND KPER 2

end timestep


start timestep kper="2" kstp="833" mode="normal"


 FMI SETTING BUDGET TERMS FOR KSTP 833 AND KPER 2 TO BUDGET FILE TERMS FROM KSTP 1 AND KPER 2

 FMI SETTING HEAD FOR KSTP 833 AND KPER 2 TO BINARY FILE HEADS FROM KSTP 1 AND KPER 2

 SFR-1 SETTING BUDGET TERMS FOR KSTP 833 AND KPER 2 TO BUDGET FILE TERMS FROM KSTP 1 AND KPER 2

end timestep


start timestep kper="2" kstp="834" mode="normal"


 FMI SETTING BUDGET TERMS FOR KSTP 834 AND KPER 2 TO BUDGET FILE TERMS FROM KSTP 1 AND KPER 2

 FMI SETTING HEAD FOR KSTP 834 AND KPER 2 TO BINARY FILE HEADS FROM KSTP 1 AND KPER 2

 SFR-1 SETTING BUDGET TERMS FOR KSTP 834 AND KPER 2 TO BUDGET FILE TERMS FROM KSTP 1 AND KPER 2

end timestep


start timestep kper="2" kstp="835" mode="normal"


 FMI SETTING BUDGET TERMS FOR KSTP 835 AND KPER 2 TO BUDGET FILE TERMS FROM KSTP 1 AND KPER 2

 FMI SETTING HEAD FOR KSTP 835 AND KPER 2 TO BINARY FILE HEADS FROM KSTP 1 AND KPER 2

 SFR-1 SETTING BUDGET TERMS FOR KSTP 835 AND KPER 2 TO BUDGET FILE TERMS FROM KSTP 1 AND KPER 2

end timestep


start timestep kper="2" kstp="836" mode="normal"


 FMI SETTING BUDGET TERMS FOR KSTP 836 AND KPER 2 TO BUDGET FILE TERMS FROM KSTP 1 AND KPER 2

 FMI SETTING HEAD FOR KSTP 836 AND KPER 2 TO BINARY FILE HEADS FROM KSTP 1 AND KPER 2

 SFR-1 SETTING BUDGET TERMS FOR KSTP 836 AND KPER 2 TO BUDGET FILE TERMS FROM KSTP 1 AND KPER 2

end timestep


start timestep kper="2" kstp="837" mode="normal"


 FMI SETTING BUDGET TERMS FOR KSTP 837 AND KPER 2 TO BUDGET FILE TERMS FROM KSTP 1 AND KPER 2

 FMI SETTING HEAD FOR KSTP 837 AND KPER 2 TO BINARY FILE HEADS FROM KSTP 1 AND KPER 2

 SFR-1 SETTING BUDGET TERMS FOR KSTP 837 AND KPER 2 TO BUDGET FILE TERMS FROM KSTP 1 AND KPER 2

end timestep


start timestep kper="2" kstp="838" mode="normal"


 FMI SETTING BUDGET TERMS FOR KSTP 838 AND KPER 2 TO BUDGET FILE TERMS FROM KSTP 1 AND KPER 2

 FMI SETTING HEAD FOR KSTP 838 AND KPER 2 TO BINARY FILE HEADS FROM KSTP 1 AND KPER 2

 SFR-1 SETTING BUDGET TERMS FOR KSTP 838 AND KPER 2 TO BUDGET FILE TERMS FROM KSTP 1 AND KPER 2

end timestep


start timestep kper="2" kstp="839" mode="normal"


 FMI SETTING BUDGET TERMS FOR KSTP 839 AND KPER 2 TO BUDGET FILE TERMS FROM KSTP 1 AND KPER 2

 FMI SETTING HEAD FOR KSTP 839 AND KPER 2 TO BINARY FILE HEADS FROM KSTP 1 AND KPER 2

 SFR-1 SETTING BUDGET TERMS FOR KSTP 839 AND KPER 2 TO BUDGET FILE TERMS FROM KSTP 1 AND KPER 2

end timestep


start timestep kper="2" kstp="840" mode="normal"


 FMI SETTING BUDGET TERMS FOR KSTP 840 AND KPER 2 TO BUDGET FILE TERMS FROM KSTP 1 AND KPER 2

 FMI SETTING HEAD FOR KSTP 840 AND KPER 2 TO BINARY FILE HEADS FROM KSTP 1 AND KPER 2

 SFR-1 SETTING BUDGET TERMS FOR KSTP 840 AND KPER 2 TO BUDGET FILE TERMS FROM KSTP 1 AND KPER 2

 CONCENTRATION WILL BE SAVED ON UNIT 1024 AT END OF TIME STEP  840, STRESS PERIOD    2

end timestep


start timestep kper="2" kstp="841" mode="normal"


 FMI SETTING BUDGET TERMS FOR KSTP 841 AND KPER 2 TO BUDGET FILE TERMS FROM KSTP 1 AND KPER 2

 FMI SETTING HEAD FOR KSTP 841 AND KPER 2 TO BINARY FILE HEADS FROM KSTP 1 AND KPER 2

 SFR-1 SETTING BUDGET TERMS FOR KSTP 841 AND KPER 2 TO BUDGET FILE TERMS FROM KSTP 1 AND KPER 2

end timestep


start timestep kper="2" kstp="842" mode="normal"


 FMI SETTING BUDGET TERMS FOR KSTP 842 AND KPER 2 TO BUDGET FILE TERMS FROM KSTP 1 AND KPER 2

 FMI SETTING HEAD FOR KSTP 842 AND KPER 2 TO BINARY FILE HEADS FROM KSTP 1 AND KPER 2

 SFR-1 SETTING BUDGET TERMS FOR KSTP 842 AND KPER 2 TO BUDGET FILE TERMS FROM KSTP 1 AND KPER 2

end timestep


start timestep kper="2" kstp="843" mode="normal"


 FMI SETTING BUDGET TERMS FOR KSTP 843 AND KPER 2 TO BUDGET FILE TERMS FROM KSTP 1 AND KPER 2

 FMI SETTING HEAD FOR KSTP 843 AND KPER 2 TO BINARY FILE HEADS FROM KSTP 1 AND KPER 2

 SFR-1 SETTING BUDGET TERMS FOR KSTP 843 AND KPER 2 TO BUDGET FILE TERMS FROM KSTP 1 AND KPER 2

end timestep


start timestep kper="2" kstp="844" mode="normal"


 FMI SETTING BUDGET TERMS FOR KSTP 844 AND KPER 2 TO BUDGET FILE TERMS FROM KSTP 1 AND KPER 2

 FMI SETTING HEAD FOR KSTP 844 AND KPER 2 TO BINARY FILE HEADS FROM KSTP 1 AND KPER 2

 SFR-1 SETTING BUDGET TERMS FOR KSTP 844 AND KPER 2 TO BUDGET FILE TERMS FROM KSTP 1 AND KPER 2

end timestep


start timestep kper="2" kstp="845" mode="normal"


 FMI SETTING BUDGET TERMS FOR KSTP 845 AND KPER 2 TO BUDGET FILE TERMS FROM KSTP 1 AND KPER 2

 FMI SETTING HEAD FOR KSTP 845 AND KPER 2 TO BINARY FILE HEADS FROM KSTP 1 AND KPER 2

 SFR-1 SETTING BUDGET TERMS FOR KSTP 845 AND KPER 2 TO BUDGET FILE TERMS FROM KSTP 1 AND KPER 2

end timestep


start timestep kper="2" kstp="846" mode="normal"


 FMI SETTING BUDGET TERMS FOR KSTP 846 AND KPER 2 TO BUDGET FILE TERMS FROM KSTP 1 AND KPER 2

 FMI SETTING HEAD FOR KSTP 846 AND KPER 2 TO BINARY FILE HEADS FROM KSTP 1 AND KPER 2

 SFR-1 SETTING BUDGET TERMS FOR KSTP 846 AND KPER 2 TO BUDGET FILE TERMS FROM KSTP 1 AND KPER 2

end timestep


start timestep kper="2" kstp="847" mode="normal"


 FMI SETTING BUDGET TERMS FOR KSTP 847 AND KPER 2 TO BUDGET FILE TERMS FROM KSTP 1 AND KPER 2

 FMI SETTING HEAD FOR KSTP 847 AND KPER 2 TO BINARY FILE HEADS FROM KSTP 1 AND KPER 2

 SFR-1 SETTING BUDGET TERMS FOR KSTP 847 AND KPER 2 TO BUDGET FILE TERMS FROM KSTP 1 AND KPER 2

end timestep


start timestep kper="2" kstp="848" mode="normal"


 FMI SETTING BUDGET TERMS FOR KSTP 848 AND KPER 2 TO BUDGET FILE TERMS FROM KSTP 1 AND KPER 2

 FMI SETTING HEAD FOR KSTP 848 AND KPER 2 TO BINARY FILE HEADS FROM KSTP 1 AND KPER 2

 SFR-1 SETTING BUDGET TERMS FOR KSTP 848 AND KPER 2 TO BUDGET FILE TERMS FROM KSTP 1 AND KPER 2

end timestep


start timestep kper="2" kstp="849" mode="normal"


 FMI SETTING BUDGET TERMS FOR KSTP 849 AND KPER 2 TO BUDGET FILE TERMS FROM KSTP 1 AND KPER 2

 FMI SETTING HEAD FOR KSTP 849 AND KPER 2 TO BINARY FILE HEADS FROM KSTP 1 AND KPER 2

 SFR-1 SETTING BUDGET TERMS FOR KSTP 849 AND KPER 2 TO BUDGET FILE TERMS FROM KSTP 1 AND KPER 2

end timestep


start timestep kper="2" kstp="850" mode="normal"


 FMI SETTING BUDGET TERMS FOR KSTP 850 AND KPER 2 TO BUDGET FILE TERMS FROM KSTP 1 AND KPER 2

 FMI SETTING HEAD FOR KSTP 850 AND KPER 2 TO BINARY FILE HEADS FROM KSTP 1 AND KPER 2

 SFR-1 SETTING BUDGET TERMS FOR KSTP 850 AND KPER 2 TO BUDGET FILE TERMS FROM KSTP 1 AND KPER 2

 CONCENTRATION WILL BE SAVED ON UNIT 1024 AT END OF TIME STEP  850, STRESS PERIOD    2

end timestep


start timestep kper="2" kstp="851" mode="normal"


 FMI SETTING BUDGET TERMS FOR KSTP 851 AND KPER 2 TO BUDGET FILE TERMS FROM KSTP 1 AND KPER 2

 FMI SETTING HEAD FOR KSTP 851 AND KPER 2 TO BINARY FILE HEADS FROM KSTP 1 AND KPER 2

 SFR-1 SETTING BUDGET TERMS FOR KSTP 851 AND KPER 2 TO BUDGET FILE TERMS FROM KSTP 1 AND KPER 2

end timestep


start timestep kper="2" kstp="852" mode="normal"


 FMI SETTING BUDGET TERMS FOR KSTP 852 AND KPER 2 TO BUDGET FILE TERMS FROM KSTP 1 AND KPER 2

 FMI SETTING HEAD FOR KSTP 852 AND KPER 2 TO BINARY FILE HEADS FROM KSTP 1 AND KPER 2

 SFR-1 SETTING BUDGET TERMS FOR KSTP 852 AND KPER 2 TO BUDGET FILE TERMS FROM KSTP 1 AND KPER 2

end timestep


start timestep kper="2" kstp="853" mode="normal"


 FMI SETTING BUDGET TERMS FOR KSTP 853 AND KPER 2 TO BUDGET FILE TERMS FROM KSTP 1 AND KPER 2

 FMI SETTING HEAD FOR KSTP 853 AND KPER 2 TO BINARY FILE HEADS FROM KSTP 1 AND KPER 2

 SFR-1 SETTING BUDGET TERMS FOR KSTP 853 AND KPER 2 TO BUDGET FILE TERMS FROM KSTP 1 AND KPER 2

end timestep


start timestep kper="2" kstp="854" mode="normal"


 FMI SETTING BUDGET TERMS FOR KSTP 854 AND KPER 2 TO BUDGET FILE TERMS FROM KSTP 1 AND KPER 2

 FMI SETTING HEAD FOR KSTP 854 AND KPER 2 TO BINARY FILE HEADS FROM KSTP 1 AND KPER 2

 SFR-1 SETTING BUDGET TERMS FOR KSTP 854 AND KPER 2 TO BUDGET FILE TERMS FROM KSTP 1 AND KPER 2

end timestep


start timestep kper="2" kstp="855" mode="normal"


 FMI SETTING BUDGET TERMS FOR KSTP 855 AND KPER 2 TO BUDGET FILE TERMS FROM KSTP 1 AND KPER 2

 FMI SETTING HEAD FOR KSTP 855 AND KPER 2 TO BINARY FILE HEADS FROM KSTP 1 AND KPER 2

 SFR-1 SETTING BUDGET TERMS FOR KSTP 855 AND KPER 2 TO BUDGET FILE TERMS FROM KSTP 1 AND KPER 2

end timestep


start timestep kper="2" kstp="856" mode="normal"


 FMI SETTING BUDGET TERMS FOR KSTP 856 AND KPER 2 TO BUDGET FILE TERMS FROM KSTP 1 AND KPER 2

 FMI SETTING HEAD FOR KSTP 856 AND KPER 2 TO BINARY FILE HEADS FROM KSTP 1 AND KPER 2

 SFR-1 SETTING BUDGET TERMS FOR KSTP 856 AND KPER 2 TO BUDGET FILE TERMS FROM KSTP 1 AND KPER 2

end timestep


start timestep kper="2" kstp="857" mode="normal"


 FMI SETTING BUDGET TERMS FOR KSTP 857 AND KPER 2 TO BUDGET FILE TERMS FROM KSTP 1 AND KPER 2

 FMI SETTING HEAD FOR KSTP 857 AND KPER 2 TO BINARY FILE HEADS FROM KSTP 1 AND KPER 2

 SFR-1 SETTING BUDGET TERMS FOR KSTP 857 AND KPER 2 TO BUDGET FILE TERMS FROM KSTP 1 AND KPER 2

end timestep


start timestep kper="2" kstp="858" mode="normal"


 FMI SETTING BUDGET TERMS FOR KSTP 858 AND KPER 2 TO BUDGET FILE TERMS FROM KSTP 1 AND KPER 2

 FMI SETTING HEAD FOR KSTP 858 AND KPER 2 TO BINARY FILE HEADS FROM KSTP 1 AND KPER 2

 SFR-1 SETTING BUDGET TERMS FOR KSTP 858 AND KPER 2 TO BUDGET FILE TERMS FROM KSTP 1 AND KPER 2

end timestep


start timestep kper="2" kstp="859" mode="normal"


 FMI SETTING BUDGET TERMS FOR KSTP 859 AND KPER 2 TO BUDGET FILE TERMS FROM KSTP 1 AND KPER 2

 FMI SETTING HEAD FOR KSTP 859 AND KPER 2 TO BINARY FILE HEADS FROM KSTP 1 AND KPER 2

 SFR-1 SETTING BUDGET TERMS FOR KSTP 859 AND KPER 2 TO BUDGET FILE TERMS FROM KSTP 1 AND KPER 2

end timestep


start timestep kper="2" kstp="860" mode="normal"


 FMI SETTING BUDGET TERMS FOR KSTP 860 AND KPER 2 TO BUDGET FILE TERMS FROM KSTP 1 AND KPER 2

 FMI SETTING HEAD FOR KSTP 860 AND KPER 2 TO BINARY FILE HEADS FROM KSTP 1 AND KPER 2

 SFR-1 SETTING BUDGET TERMS FOR KSTP 860 AND KPER 2 TO BUDGET FILE TERMS FROM KSTP 1 AND KPER 2

 CONCENTRATION WILL BE SAVED ON UNIT 1024 AT END OF TIME STEP  860, STRESS PERIOD    2

end timestep


start timestep kper="2" kstp="861" mode="normal"


 FMI SETTING BUDGET TERMS FOR KSTP 861 AND KPER 2 TO BUDGET FILE TERMS FROM KSTP 1 AND KPER 2

 FMI SETTING HEAD FOR KSTP 861 AND KPER 2 TO BINARY FILE HEADS FROM KSTP 1 AND KPER 2

 SFR-1 SETTING BUDGET TERMS FOR KSTP 861 AND KPER 2 TO BUDGET FILE TERMS FROM KSTP 1 AND KPER 2

end timestep


start timestep kper="2" kstp="862" mode="normal"


 FMI SETTING BUDGET TERMS FOR KSTP 862 AND KPER 2 TO BUDGET FILE TERMS FROM KSTP 1 AND KPER 2

 FMI SETTING HEAD FOR KSTP 862 AND KPER 2 TO BINARY FILE HEADS FROM KSTP 1 AND KPER 2

 SFR-1 SETTING BUDGET TERMS FOR KSTP 862 AND KPER 2 TO BUDGET FILE TERMS FROM KSTP 1 AND KPER 2

end timestep


start timestep kper="2" kstp="863" mode="normal"


 FMI SETTING BUDGET TERMS FOR KSTP 863 AND KPER 2 TO BUDGET FILE TERMS FROM KSTP 1 AND KPER 2

 FMI SETTING HEAD FOR KSTP 863 AND KPER 2 TO BINARY FILE HEADS FROM KSTP 1 AND KPER 2

 SFR-1 SETTING BUDGET TERMS FOR KSTP 863 AND KPER 2 TO BUDGET FILE TERMS FROM KSTP 1 AND KPER 2

end timestep


start timestep kper="2" kstp="864" mode="normal"


 FMI SETTING BUDGET TERMS FOR KSTP 864 AND KPER 2 TO BUDGET FILE TERMS FROM KSTP 1 AND KPER 2

 FMI SETTING HEAD FOR KSTP 864 AND KPER 2 TO BINARY FILE HEADS FROM KSTP 1 AND KPER 2

 SFR-1 SETTING BUDGET TERMS FOR KSTP 864 AND KPER 2 TO BUDGET FILE TERMS FROM KSTP 1 AND KPER 2

end timestep


start timestep kper="2" kstp="865" mode="normal"


 FMI SETTING BUDGET TERMS FOR KSTP 865 AND KPER 2 TO BUDGET FILE TERMS FROM KSTP 1 AND KPER 2

 FMI SETTING HEAD FOR KSTP 865 AND KPER 2 TO BINARY FILE HEADS FROM KSTP 1 AND KPER 2

 SFR-1 SETTING BUDGET TERMS FOR KSTP 865 AND KPER 2 TO BUDGET FILE TERMS FROM KSTP 1 AND KPER 2

end timestep


start timestep kper="2" kstp="866" mode="normal"


 FMI SETTING BUDGET TERMS FOR KSTP 866 AND KPER 2 TO BUDGET FILE TERMS FROM KSTP 1 AND KPER 2

 FMI SETTING HEAD FOR KSTP 866 AND KPER 2 TO BINARY FILE HEADS FROM KSTP 1 AND KPER 2

 SFR-1 SETTING BUDGET TERMS FOR KSTP 866 AND KPER 2 TO BUDGET FILE TERMS FROM KSTP 1 AND KPER 2

end timestep


start timestep kper="2" kstp="867" mode="normal"


 FMI SETTING BUDGET TERMS FOR KSTP 867 AND KPER 2 TO BUDGET FILE TERMS FROM KSTP 1 AND KPER 2

 FMI SETTING HEAD FOR KSTP 867 AND KPER 2 TO BINARY FILE HEADS FROM KSTP 1 AND KPER 2

 SFR-1 SETTING BUDGET TERMS FOR KSTP 867 AND KPER 2 TO BUDGET FILE TERMS FROM KSTP 1 AND KPER 2

end timestep


start timestep kper="2" kstp="868" mode="normal"


 FMI SETTING BUDGET TERMS FOR KSTP 868 AND KPER 2 TO BUDGET FILE TERMS FROM KSTP 1 AND KPER 2

 FMI SETTING HEAD FOR KSTP 868 AND KPER 2 TO BINARY FILE HEADS FROM KSTP 1 AND KPER 2

 SFR-1 SETTING BUDGET TERMS FOR KSTP 868 AND KPER 2 TO BUDGET FILE TERMS FROM KSTP 1 AND KPER 2

end timestep


start timestep kper="2" kstp="869" mode="normal"


 FMI SETTING BUDGET TERMS FOR KSTP 869 AND KPER 2 TO BUDGET FILE TERMS FROM KSTP 1 AND KPER 2

 FMI SETTING HEAD FOR KSTP 869 AND KPER 2 TO BINARY FILE HEADS FROM KSTP 1 AND KPER 2

 SFR-1 SETTING BUDGET TERMS FOR KSTP 869 AND KPER 2 TO BUDGET FILE TERMS FROM KSTP 1 AND KPER 2

end timestep


start timestep kper="2" kstp="870" mode="normal"


 FMI SETTING BUDGET TERMS FOR KSTP 870 AND KPER 2 TO BUDGET FILE TERMS FROM KSTP 1 AND KPER 2

 FMI SETTING HEAD FOR KSTP 870 AND KPER 2 TO BINARY FILE HEADS FROM KSTP 1 AND KPER 2

 SFR-1 SETTING BUDGET TERMS FOR KSTP 870 AND KPER 2 TO BUDGET FILE TERMS FROM KSTP 1 AND KPER 2

 CONCENTRATION WILL BE SAVED ON UNIT 1024 AT END OF TIME STEP  870, STRESS PERIOD    2

end timestep


start timestep kper="2" kstp="871" mode="normal"


 FMI SETTING BUDGET TERMS FOR KSTP 871 AND KPER 2 TO BUDGET FILE TERMS FROM KSTP 1 AND KPER 2

 FMI SETTING HEAD FOR KSTP 871 AND KPER 2 TO BINARY FILE HEADS FROM KSTP 1 AND KPER 2

 SFR-1 SETTING BUDGET TERMS FOR KSTP 871 AND KPER 2 TO BUDGET FILE TERMS FROM KSTP 1 AND KPER 2

end timestep


start timestep kper="2" kstp="872" mode="normal"


 FMI SETTING BUDGET TERMS FOR KSTP 872 AND KPER 2 TO BUDGET FILE TERMS FROM KSTP 1 AND KPER 2

 FMI SETTING HEAD FOR KSTP 872 AND KPER 2 TO BINARY FILE HEADS FROM KSTP 1 AND KPER 2

 SFR-1 SETTING BUDGET TERMS FOR KSTP 872 AND KPER 2 TO BUDGET FILE TERMS FROM KSTP 1 AND KPER 2

end timestep


start timestep kper="2" kstp="873" mode="normal"


 FMI SETTING BUDGET TERMS FOR KSTP 873 AND KPER 2 TO BUDGET FILE TERMS FROM KSTP 1 AND KPER 2

 FMI SETTING HEAD FOR KSTP 873 AND KPER 2 TO BINARY FILE HEADS FROM KSTP 1 AND KPER 2

 SFR-1 SETTING BUDGET TERMS FOR KSTP 873 AND KPER 2 TO BUDGET FILE TERMS FROM KSTP 1 AND KPER 2

end timestep


start timestep kper="2" kstp="874" mode="normal"


 FMI SETTING BUDGET TERMS FOR KSTP 874 AND KPER 2 TO BUDGET FILE TERMS FROM KSTP 1 AND KPER 2

 FMI SETTING HEAD FOR KSTP 874 AND KPER 2 TO BINARY FILE HEADS FROM KSTP 1 AND KPER 2

 SFR-1 SETTING BUDGET TERMS FOR KSTP 874 AND KPER 2 TO BUDGET FILE TERMS FROM KSTP 1 AND KPER 2

end timestep


start timestep kper="2" kstp="875" mode="normal"


 FMI SETTING BUDGET TERMS FOR KSTP 875 AND KPER 2 TO BUDGET FILE TERMS FROM KSTP 1 AND KPER 2

 FMI SETTING HEAD FOR KSTP 875 AND KPER 2 TO BINARY FILE HEADS FROM KSTP 1 AND KPER 2

 SFR-1 SETTING BUDGET TERMS FOR KSTP 875 AND KPER 2 TO BUDGET FILE TERMS FROM KSTP 1 AND KPER 2

end timestep


start timestep kper="2" kstp="876" mode="normal"


 FMI SETTING BUDGET TERMS FOR KSTP 876 AND KPER 2 TO BUDGET FILE TERMS FROM KSTP 1 AND KPER 2

 FMI SETTING HEAD FOR KSTP 876 AND KPER 2 TO BINARY FILE HEADS FROM KSTP 1 AND KPER 2

 SFR-1 SETTING BUDGET TERMS FOR KSTP 876 AND KPER 2 TO BUDGET FILE TERMS FROM KSTP 1 AND KPER 2

end timestep


start timestep kper="2" kstp="877" mode="normal"


 FMI SETTING BUDGET TERMS FOR KSTP 877 AND KPER 2 TO BUDGET FILE TERMS FROM KSTP 1 AND KPER 2

 FMI SETTING HEAD FOR KSTP 877 AND KPER 2 TO BINARY FILE HEADS FROM KSTP 1 AND KPER 2

 SFR-1 SETTING BUDGET TERMS FOR KSTP 877 AND KPER 2 TO BUDGET FILE TERMS FROM KSTP 1 AND KPER 2

end timestep


start timestep kper="2" kstp="878" mode="normal"


 FMI SETTING BUDGET TERMS FOR KSTP 878 AND KPER 2 TO BUDGET FILE TERMS FROM KSTP 1 AND KPER 2

 FMI SETTING HEAD FOR KSTP 878 AND KPER 2 TO BINARY FILE HEADS FROM KSTP 1 AND KPER 2

 SFR-1 SETTING BUDGET TERMS FOR KSTP 878 AND KPER 2 TO BUDGET FILE TERMS FROM KSTP 1 AND KPER 2

end timestep


start timestep kper="2" kstp="879" mode="normal"


 FMI SETTING BUDGET TERMS FOR KSTP 879 AND KPER 2 TO BUDGET FILE TERMS FROM KSTP 1 AND KPER 2

 FMI SETTING HEAD FOR KSTP 879 AND KPER 2 TO BINARY FILE HEADS FROM KSTP 1 AND KPER 2

 SFR-1 SETTING BUDGET TERMS FOR KSTP 879 AND KPER 2 TO BUDGET FILE TERMS FROM KSTP 1 AND KPER 2

end timestep


start timestep kper="2" kstp="880" mode="normal"


 FMI SETTING BUDGET TERMS FOR KSTP 880 AND KPER 2 TO BUDGET FILE TERMS FROM KSTP 1 AND KPER 2

 FMI SETTING HEAD FOR KSTP 880 AND KPER 2 TO BINARY FILE HEADS FROM KSTP 1 AND KPER 2

 SFR-1 SETTING BUDGET TERMS FOR KSTP 880 AND KPER 2 TO BUDGET FILE TERMS FROM KSTP 1 AND KPER 2

 CONCENTRATION WILL BE SAVED ON UNIT 1024 AT END OF TIME STEP  880, STRESS PERIOD    2

end timestep


start timestep kper="2" kstp="881" mode="normal"


 FMI SETTING BUDGET TERMS FOR KSTP 881 AND KPER 2 TO BUDGET FILE TERMS FROM KSTP 1 AND KPER 2

 FMI SETTING HEAD FOR KSTP 881 AND KPER 2 TO BINARY FILE HEADS FROM KSTP 1 AND KPER 2

 SFR-1 SETTING BUDGET TERMS FOR KSTP 881 AND KPER 2 TO BUDGET FILE TERMS FROM KSTP 1 AND KPER 2

end timestep


start timestep kper="2" kstp="882" mode="normal"


 FMI SETTING BUDGET TERMS FOR KSTP 882 AND KPER 2 TO BUDGET FILE TERMS FROM KSTP 1 AND KPER 2

 FMI SETTING HEAD FOR KSTP 882 AND KPER 2 TO BINARY FILE HEADS FROM KSTP 1 AND KPER 2

 SFR-1 SETTING BUDGET TERMS FOR KSTP 882 AND KPER 2 TO BUDGET FILE TERMS FROM KSTP 1 AND KPER 2

end timestep


start timestep kper="2" kstp="883" mode="normal"


 FMI SETTING BUDGET TERMS FOR KSTP 883 AND KPER 2 TO BUDGET FILE TERMS FROM KSTP 1 AND KPER 2

 FMI SETTING HEAD FOR KSTP 883 AND KPER 2 TO BINARY FILE HEADS FROM KSTP 1 AND KPER 2

 SFR-1 SETTING BUDGET TERMS FOR KSTP 883 AND KPER 2 TO BUDGET FILE TERMS FROM KSTP 1 AND KPER 2

end timestep


start timestep kper="2" kstp="884" mode="normal"


 FMI SETTING BUDGET TERMS FOR KSTP 884 AND KPER 2 TO BUDGET FILE TERMS FROM KSTP 1 AND KPER 2

 FMI SETTING HEAD FOR KSTP 884 AND KPER 2 TO BINARY FILE HEADS FROM KSTP 1 AND KPER 2

 SFR-1 SETTING BUDGET TERMS FOR KSTP 884 AND KPER 2 TO BUDGET FILE TERMS FROM KSTP 1 AND KPER 2

end timestep


start timestep kper="2" kstp="885" mode="normal"


 FMI SETTING BUDGET TERMS FOR KSTP 885 AND KPER 2 TO BUDGET FILE TERMS FROM KSTP 1 AND KPER 2

 FMI SETTING HEAD FOR KSTP 885 AND KPER 2 TO BINARY FILE HEADS FROM KSTP 1 AND KPER 2

 SFR-1 SETTING BUDGET TERMS FOR KSTP 885 AND KPER 2 TO BUDGET FILE TERMS FROM KSTP 1 AND KPER 2

end timestep


start timestep kper="2" kstp="886" mode="normal"


 FMI SETTING BUDGET TERMS FOR KSTP 886 AND KPER 2 TO BUDGET FILE TERMS FROM KSTP 1 AND KPER 2

 FMI SETTING HEAD FOR KSTP 886 AND KPER 2 TO BINARY FILE HEADS FROM KSTP 1 AND KPER 2

 SFR-1 SETTING BUDGET TERMS FOR KSTP 886 AND KPER 2 TO BUDGET FILE TERMS FROM KSTP 1 AND KPER 2

end timestep


start timestep kper="2" kstp="887" mode="normal"


 FMI SETTING BUDGET TERMS FOR KSTP 887 AND KPER 2 TO BUDGET FILE TERMS FROM KSTP 1 AND KPER 2

 FMI SETTING HEAD FOR KSTP 887 AND KPER 2 TO BINARY FILE HEADS FROM KSTP 1 AND KPER 2

 SFR-1 SETTING BUDGET TERMS FOR KSTP 887 AND KPER 2 TO BUDGET FILE TERMS FROM KSTP 1 AND KPER 2

end timestep


start timestep kper="2" kstp="888" mode="normal"


 FMI SETTING BUDGET TERMS FOR KSTP 888 AND KPER 2 TO BUDGET FILE TERMS FROM KSTP 1 AND KPER 2

 FMI SETTING HEAD FOR KSTP 888 AND KPER 2 TO BINARY FILE HEADS FROM KSTP 1 AND KPER 2

 SFR-1 SETTING BUDGET TERMS FOR KSTP 888 AND KPER 2 TO BUDGET FILE TERMS FROM KSTP 1 AND KPER 2

end timestep


start timestep kper="2" kstp="889" mode="normal"


 FMI SETTING BUDGET TERMS FOR KSTP 889 AND KPER 2 TO BUDGET FILE TERMS FROM KSTP 1 AND KPER 2

 FMI SETTING HEAD FOR KSTP 889 AND KPER 2 TO BINARY FILE HEADS FROM KSTP 1 AND KPER 2

 SFR-1 SETTING BUDGET TERMS FOR KSTP 889 AND KPER 2 TO BUDGET FILE TERMS FROM KSTP 1 AND KPER 2

end timestep


start timestep kper="2" kstp="890" mode="normal"


 FMI SETTING BUDGET TERMS FOR KSTP 890 AND KPER 2 TO BUDGET FILE TERMS FROM KSTP 1 AND KPER 2

 FMI SETTING HEAD FOR KSTP 890 AND KPER 2 TO BINARY FILE HEADS FROM KSTP 1 AND KPER 2

 SFR-1 SETTING BUDGET TERMS FOR KSTP 890 AND KPER 2 TO BUDGET FILE TERMS FROM KSTP 1 AND KPER 2

 CONCENTRATION WILL BE SAVED ON UNIT 1024 AT END OF TIME STEP  890, STRESS PERIOD    2

end timestep


start timestep kper="2" kstp="891" mode="normal"


 FMI SETTING BUDGET TERMS FOR KSTP 891 AND KPER 2 TO BUDGET FILE TERMS FROM KSTP 1 AND KPER 2

 FMI SETTING HEAD FOR KSTP 891 AND KPER 2 TO BINARY FILE HEADS FROM KSTP 1 AND KPER 2

 SFR-1 SETTING BUDGET TERMS FOR KSTP 891 AND KPER 2 TO BUDGET FILE TERMS FROM KSTP 1 AND KPER 2

end timestep


start timestep kper="2" kstp="892" mode="normal"


 FMI SETTING BUDGET TERMS FOR KSTP 892 AND KPER 2 TO BUDGET FILE TERMS FROM KSTP 1 AND KPER 2

 FMI SETTING HEAD FOR KSTP 892 AND KPER 2 TO BINARY FILE HEADS FROM KSTP 1 AND KPER 2

 SFR-1 SETTING BUDGET TERMS FOR KSTP 892 AND KPER 2 TO BUDGET FILE TERMS FROM KSTP 1 AND KPER 2

end timestep


start timestep kper="2" kstp="893" mode="normal"


 FMI SETTING BUDGET TERMS FOR KSTP 893 AND KPER 2 TO BUDGET FILE TERMS FROM KSTP 1 AND KPER 2

 FMI SETTING HEAD FOR KSTP 893 AND KPER 2 TO BINARY FILE HEADS FROM KSTP 1 AND KPER 2

 SFR-1 SETTING BUDGET TERMS FOR KSTP 893 AND KPER 2 TO BUDGET FILE TERMS FROM KSTP 1 AND KPER 2

end timestep


start timestep kper="2" kstp="894" mode="normal"


 FMI SETTING BUDGET TERMS FOR KSTP 894 AND KPER 2 TO BUDGET FILE TERMS FROM KSTP 1 AND KPER 2

 FMI SETTING HEAD FOR KSTP 894 AND KPER 2 TO BINARY FILE HEADS FROM KSTP 1 AND KPER 2

 SFR-1 SETTING BUDGET TERMS FOR KSTP 894 AND KPER 2 TO BUDGET FILE TERMS FROM KSTP 1 AND KPER 2

end timestep


start timestep kper="2" kstp="895" mode="normal"


 FMI SETTING BUDGET TERMS FOR KSTP 895 AND KPER 2 TO BUDGET FILE TERMS FROM KSTP 1 AND KPER 2

 FMI SETTING HEAD FOR KSTP 895 AND KPER 2 TO BINARY FILE HEADS FROM KSTP 1 AND KPER 2

 SFR-1 SETTING BUDGET TERMS FOR KSTP 895 AND KPER 2 TO BUDGET FILE TERMS FROM KSTP 1 AND KPER 2

end timestep


start timestep kper="2" kstp="896" mode="normal"


 FMI SETTING BUDGET TERMS FOR KSTP 896 AND KPER 2 TO BUDGET FILE TERMS FROM KSTP 1 AND KPER 2

 FMI SETTING HEAD FOR KSTP 896 AND KPER 2 TO BINARY FILE HEADS FROM KSTP 1 AND KPER 2

 SFR-1 SETTING BUDGET TERMS FOR KSTP 896 AND KPER 2 TO BUDGET FILE TERMS FROM KSTP 1 AND KPER 2

end timestep


start timestep kper="2" kstp="897" mode="normal"


 FMI SETTING BUDGET TERMS FOR KSTP 897 AND KPER 2 TO BUDGET FILE TERMS FROM KSTP 1 AND KPER 2

 FMI SETTING HEAD FOR KSTP 897 AND KPER 2 TO BINARY FILE HEADS FROM KSTP 1 AND KPER 2

 SFR-1 SETTING BUDGET TERMS FOR KSTP 897 AND KPER 2 TO BUDGET FILE TERMS FROM KSTP 1 AND KPER 2

end timestep


start timestep kper="2" kstp="898" mode="normal"


 FMI SETTING BUDGET TERMS FOR KSTP 898 AND KPER 2 TO BUDGET FILE TERMS FROM KSTP 1 AND KPER 2

 FMI SETTING HEAD FOR KSTP 898 AND KPER 2 TO BINARY FILE HEADS FROM KSTP 1 AND KPER 2

 SFR-1 SETTING BUDGET TERMS FOR KSTP 898 AND KPER 2 TO BUDGET FILE TERMS FROM KSTP 1 AND KPER 2

end timestep


start timestep kper="2" kstp="899" mode="normal"


 FMI SETTING BUDGET TERMS FOR KSTP 899 AND KPER 2 TO BUDGET FILE TERMS FROM KSTP 1 AND KPER 2

 FMI SETTING HEAD FOR KSTP 899 AND KPER 2 TO BINARY FILE HEADS FROM KSTP 1 AND KPER 2

 SFR-1 SETTING BUDGET TERMS FOR KSTP 899 AND KPER 2 TO BUDGET FILE TERMS FROM KSTP 1 AND KPER 2

end timestep


start timestep kper="2" kstp="900" mode="normal"


 FMI SETTING BUDGET TERMS FOR KSTP 900 AND KPER 2 TO BUDGET FILE TERMS FROM KSTP 1 AND KPER 2

 FMI SETTING HEAD FOR KSTP 900 AND KPER 2 TO BINARY FILE HEADS FROM KSTP 1 AND KPER 2

 SFR-1 SETTING BUDGET TERMS FOR KSTP 900 AND KPER 2 TO BUDGET FILE TERMS FROM KSTP 1 AND KPER 2

 CONCENTRATION WILL BE SAVED ON UNIT 1024 AT END OF TIME STEP  900, STRESS PERIOD    2

end timestep


start timestep kper="2" kstp="901" mode="normal"


 FMI SETTING BUDGET TERMS FOR KSTP 901 AND KPER 2 TO BUDGET FILE TERMS FROM KSTP 1 AND KPER 2

 FMI SETTING HEAD FOR KSTP 901 AND KPER 2 TO BINARY FILE HEADS FROM KSTP 1 AND KPER 2

 SFR-1 SETTING BUDGET TERMS FOR KSTP 901 AND KPER 2 TO BUDGET FILE TERMS FROM KSTP 1 AND KPER 2

end timestep


start timestep kper="2" kstp="902" mode="normal"


 FMI SETTING BUDGET TERMS FOR KSTP 902 AND KPER 2 TO BUDGET FILE TERMS FROM KSTP 1 AND KPER 2

 FMI SETTING HEAD FOR KSTP 902 AND KPER 2 TO BINARY FILE HEADS FROM KSTP 1 AND KPER 2

 SFR-1 SETTING BUDGET TERMS FOR KSTP 902 AND KPER 2 TO BUDGET FILE TERMS FROM KSTP 1 AND KPER 2

end timestep


start timestep kper="2" kstp="903" mode="normal"


 FMI SETTING BUDGET TERMS FOR KSTP 903 AND KPER 2 TO BUDGET FILE TERMS FROM KSTP 1 AND KPER 2

 FMI SETTING HEAD FOR KSTP 903 AND KPER 2 TO BINARY FILE HEADS FROM KSTP 1 AND KPER 2

 SFR-1 SETTING BUDGET TERMS FOR KSTP 903 AND KPER 2 TO BUDGET FILE TERMS FROM KSTP 1 AND KPER 2

end timestep


start timestep kper="2" kstp="904" mode="normal"


 FMI SETTING BUDGET TERMS FOR KSTP 904 AND KPER 2 TO BUDGET FILE TERMS FROM KSTP 1 AND KPER 2

 FMI SETTING HEAD FOR KSTP 904 AND KPER 2 TO BINARY FILE HEADS FROM KSTP 1 AND KPER 2

 SFR-1 SETTING BUDGET TERMS FOR KSTP 904 AND KPER 2 TO BUDGET FILE TERMS FROM KSTP 1 AND KPER 2

end timestep


start timestep kper="2" kstp="905" mode="normal"


 FMI SETTING BUDGET TERMS FOR KSTP 905 AND KPER 2 TO BUDGET FILE TERMS FROM KSTP 1 AND KPER 2

 FMI SETTING HEAD FOR KSTP 905 AND KPER 2 TO BINARY FILE HEADS FROM KSTP 1 AND KPER 2

 SFR-1 SETTING BUDGET TERMS FOR KSTP 905 AND KPER 2 TO BUDGET FILE TERMS FROM KSTP 1 AND KPER 2

end timestep


start timestep kper="2" kstp="906" mode="normal"


 FMI SETTING BUDGET TERMS FOR KSTP 906 AND KPER 2 TO BUDGET FILE TERMS FROM KSTP 1 AND KPER 2

 FMI SETTING HEAD FOR KSTP 906 AND KPER 2 TO BINARY FILE HEADS FROM KSTP 1 AND KPER 2

 SFR-1 SETTING BUDGET TERMS FOR KSTP 906 AND KPER 2 TO BUDGET FILE TERMS FROM KSTP 1 AND KPER 2

end timestep


start timestep kper="2" kstp="907" mode="normal"


 FMI SETTING BUDGET TERMS FOR KSTP 907 AND KPER 2 TO BUDGET FILE TERMS FROM KSTP 1 AND KPER 2

 FMI SETTING HEAD FOR KSTP 907 AND KPER 2 TO BINARY FILE HEADS FROM KSTP 1 AND KPER 2

 SFR-1 SETTING BUDGET TERMS FOR KSTP 907 AND KPER 2 TO BUDGET FILE TERMS FROM KSTP 1 AND KPER 2

end timestep


start timestep kper="2" kstp="908" mode="normal"


 FMI SETTING BUDGET TERMS FOR KSTP 908 AND KPER 2 TO BUDGET FILE TERMS FROM KSTP 1 AND KPER 2

 FMI SETTING HEAD FOR KSTP 908 AND KPER 2 TO BINARY FILE HEADS FROM KSTP 1 AND KPER 2

 SFR-1 SETTING BUDGET TERMS FOR KSTP 908 AND KPER 2 TO BUDGET FILE TERMS FROM KSTP 1 AND KPER 2

end timestep


start timestep kper="2" kstp="909" mode="normal"


 FMI SETTING BUDGET TERMS FOR KSTP 909 AND KPER 2 TO BUDGET FILE TERMS FROM KSTP 1 AND KPER 2

 FMI SETTING HEAD FOR KSTP 909 AND KPER 2 TO BINARY FILE HEADS FROM KSTP 1 AND KPER 2

 SFR-1 SETTING BUDGET TERMS FOR KSTP 909 AND KPER 2 TO BUDGET FILE TERMS FROM KSTP 1 AND KPER 2

end timestep


start timestep kper="2" kstp="910" mode="normal"


 FMI SETTING BUDGET TERMS FOR KSTP 910 AND KPER 2 TO BUDGET FILE TERMS FROM KSTP 1 AND KPER 2

 FMI SETTING HEAD FOR KSTP 910 AND KPER 2 TO BINARY FILE HEADS FROM KSTP 1 AND KPER 2

 SFR-1 SETTING BUDGET TERMS FOR KSTP 910 AND KPER 2 TO BUDGET FILE TERMS FROM KSTP 1 AND KPER 2

 CONCENTRATION WILL BE SAVED ON UNIT 1024 AT END OF TIME STEP  910, STRESS PERIOD    2

end timestep


start timestep kper="2" kstp="911" mode="normal"


 FMI SETTING BUDGET TERMS FOR KSTP 911 AND KPER 2 TO BUDGET FILE TERMS FROM KSTP 1 AND KPER 2

 FMI SETTING HEAD FOR KSTP 911 AND KPER 2 TO BINARY FILE HEADS FROM KSTP 1 AND KPER 2

 SFR-1 SETTING BUDGET TERMS FOR KSTP 911 AND KPER 2 TO BUDGET FILE TERMS FROM KSTP 1 AND KPER 2

end timestep


start timestep kper="2" kstp="912" mode="normal"


 FMI SETTING BUDGET TERMS FOR KSTP 912 AND KPER 2 TO BUDGET FILE TERMS FROM KSTP 1 AND KPER 2

 FMI SETTING HEAD FOR KSTP 912 AND KPER 2 TO BINARY FILE HEADS FROM KSTP 1 AND KPER 2

 SFR-1 SETTING BUDGET TERMS FOR KSTP 912 AND KPER 2 TO BUDGET FILE TERMS FROM KSTP 1 AND KPER 2

end timestep


start timestep kper="2" kstp="913" mode="normal"


 FMI SETTING BUDGET TERMS FOR KSTP 913 AND KPER 2 TO BUDGET FILE TERMS FROM KSTP 1 AND KPER 2

 FMI SETTING HEAD FOR KSTP 913 AND KPER 2 TO BINARY FILE HEADS FROM KSTP 1 AND KPER 2

 SFR-1 SETTING BUDGET TERMS FOR KSTP 913 AND KPER 2 TO BUDGET FILE TERMS FROM KSTP 1 AND KPER 2

end timestep


start timestep kper="2" kstp="914" mode="normal"


 FMI SETTING BUDGET TERMS FOR KSTP 914 AND KPER 2 TO BUDGET FILE TERMS FROM KSTP 1 AND KPER 2

 FMI SETTING HEAD FOR KSTP 914 AND KPER 2 TO BINARY FILE HEADS FROM KSTP 1 AND KPER 2

 SFR-1 SETTING BUDGET TERMS FOR KSTP 914 AND KPER 2 TO BUDGET FILE TERMS FROM KSTP 1 AND KPER 2

end timestep


start timestep kper="2" kstp="915" mode="normal"


 FMI SETTING BUDGET TERMS FOR KSTP 915 AND KPER 2 TO BUDGET FILE TERMS FROM KSTP 1 AND KPER 2

 FMI SETTING HEAD FOR KSTP 915 AND KPER 2 TO BINARY FILE HEADS FROM KSTP 1 AND KPER 2

 SFR-1 SETTING BUDGET TERMS FOR KSTP 915 AND KPER 2 TO BUDGET FILE TERMS FROM KSTP 1 AND KPER 2

end timestep


start timestep kper="2" kstp="916" mode="normal"


 FMI SETTING BUDGET TERMS FOR KSTP 916 AND KPER 2 TO BUDGET FILE TERMS FROM KSTP 1 AND KPER 2

 FMI SETTING HEAD FOR KSTP 916 AND KPER 2 TO BINARY FILE HEADS FROM KSTP 1 AND KPER 2

 SFR-1 SETTING BUDGET TERMS FOR KSTP 916 AND KPER 2 TO BUDGET FILE TERMS FROM KSTP 1 AND KPER 2

end timestep


start timestep kper="2" kstp="917" mode="normal"


 FMI SETTING BUDGET TERMS FOR KSTP 917 AND KPER 2 TO BUDGET FILE TERMS FROM KSTP 1 AND KPER 2

 FMI SETTING HEAD FOR KSTP 917 AND KPER 2 TO BINARY FILE HEADS FROM KSTP 1 AND KPER 2

 SFR-1 SETTING BUDGET TERMS FOR KSTP 917 AND KPER 2 TO BUDGET FILE TERMS FROM KSTP 1 AND KPER 2

end timestep


start timestep kper="2" kstp="918" mode="normal"


 FMI SETTING BUDGET TERMS FOR KSTP 918 AND KPER 2 TO BUDGET FILE TERMS FROM KSTP 1 AND KPER 2

 FMI SETTING HEAD FOR KSTP 918 AND KPER 2 TO BINARY FILE HEADS FROM KSTP 1 AND KPER 2

 SFR-1 SETTING BUDGET TERMS FOR KSTP 918 AND KPER 2 TO BUDGET FILE TERMS FROM KSTP 1 AND KPER 2

end timestep


start timestep kper="2" kstp="919" mode="normal"


 FMI SETTING BUDGET TERMS FOR KSTP 919 AND KPER 2 TO BUDGET FILE TERMS FROM KSTP 1 AND KPER 2

 FMI SETTING HEAD FOR KSTP 919 AND KPER 2 TO BINARY FILE HEADS FROM KSTP 1 AND KPER 2

 SFR-1 SETTING BUDGET TERMS FOR KSTP 919 AND KPER 2 TO BUDGET FILE TERMS FROM KSTP 1 AND KPER 2

end timestep


start timestep kper="2" kstp="920" mode="normal"


 FMI SETTING BUDGET TERMS FOR KSTP 920 AND KPER 2 TO BUDGET FILE TERMS FROM KSTP 1 AND KPER 2

 FMI SETTING HEAD FOR KSTP 920 AND KPER 2 TO BINARY FILE HEADS FROM KSTP 1 AND KPER 2

 SFR-1 SETTING BUDGET TERMS FOR KSTP 920 AND KPER 2 TO BUDGET FILE TERMS FROM KSTP 1 AND KPER 2

 CONCENTRATION WILL BE SAVED ON UNIT 1024 AT END OF TIME STEP  920, STRESS PERIOD    2

end timestep


start timestep kper="2" kstp="921" mode="normal"


 FMI SETTING BUDGET TERMS FOR KSTP 921 AND KPER 2 TO BUDGET FILE TERMS FROM KSTP 1 AND KPER 2

 FMI SETTING HEAD FOR KSTP 921 AND KPER 2 TO BINARY FILE HEADS FROM KSTP 1 AND KPER 2

 SFR-1 SETTING BUDGET TERMS FOR KSTP 921 AND KPER 2 TO BUDGET FILE TERMS FROM KSTP 1 AND KPER 2

end timestep


start timestep kper="2" kstp="922" mode="normal"


 FMI SETTING BUDGET TERMS FOR KSTP 922 AND KPER 2 TO BUDGET FILE TERMS FROM KSTP 1 AND KPER 2

 FMI SETTING HEAD FOR KSTP 922 AND KPER 2 TO BINARY FILE HEADS FROM KSTP 1 AND KPER 2

 SFR-1 SETTING BUDGET TERMS FOR KSTP 922 AND KPER 2 TO BUDGET FILE TERMS FROM KSTP 1 AND KPER 2

end timestep


start timestep kper="2" kstp="923" mode="normal"


 FMI SETTING BUDGET TERMS FOR KSTP 923 AND KPER 2 TO BUDGET FILE TERMS FROM KSTP 1 AND KPER 2

 FMI SETTING HEAD FOR KSTP 923 AND KPER 2 TO BINARY FILE HEADS FROM KSTP 1 AND KPER 2

 SFR-1 SETTING BUDGET TERMS FOR KSTP 923 AND KPER 2 TO BUDGET FILE TERMS FROM KSTP 1 AND KPER 2

end timestep


start timestep kper="2" kstp="924" mode="normal"


 FMI SETTING BUDGET TERMS FOR KSTP 924 AND KPER 2 TO BUDGET FILE TERMS FROM KSTP 1 AND KPER 2

 FMI SETTING HEAD FOR KSTP 924 AND KPER 2 TO BINARY FILE HEADS FROM KSTP 1 AND KPER 2

 SFR-1 SETTING BUDGET TERMS FOR KSTP 924 AND KPER 2 TO BUDGET FILE TERMS FROM KSTP 1 AND KPER 2

end timestep


start timestep kper="2" kstp="925" mode="normal"


 FMI SETTING BUDGET TERMS FOR KSTP 925 AND KPER 2 TO BUDGET FILE TERMS FROM KSTP 1 AND KPER 2

 FMI SETTING HEAD FOR KSTP 925 AND KPER 2 TO BINARY FILE HEADS FROM KSTP 1 AND KPER 2

 SFR-1 SETTING BUDGET TERMS FOR KSTP 925 AND KPER 2 TO BUDGET FILE TERMS FROM KSTP 1 AND KPER 2

end timestep


start timestep kper="2" kstp="926" mode="normal"


 FMI SETTING BUDGET TERMS FOR KSTP 926 AND KPER 2 TO BUDGET FILE TERMS FROM KSTP 1 AND KPER 2

 FMI SETTING HEAD FOR KSTP 926 AND KPER 2 TO BINARY FILE HEADS FROM KSTP 1 AND KPER 2

 SFR-1 SETTING BUDGET TERMS FOR KSTP 926 AND KPER 2 TO BUDGET FILE TERMS FROM KSTP 1 AND KPER 2

end timestep


start timestep kper="2" kstp="927" mode="normal"


 FMI SETTING BUDGET TERMS FOR KSTP 927 AND KPER 2 TO BUDGET FILE TERMS FROM KSTP 1 AND KPER 2

 FMI SETTING HEAD FOR KSTP 927 AND KPER 2 TO BINARY FILE HEADS FROM KSTP 1 AND KPER 2

 SFR-1 SETTING BUDGET TERMS FOR KSTP 927 AND KPER 2 TO BUDGET FILE TERMS FROM KSTP 1 AND KPER 2

end timestep


start timestep kper="2" kstp="928" mode="normal"


 FMI SETTING BUDGET TERMS FOR KSTP 928 AND KPER 2 TO BUDGET FILE TERMS FROM KSTP 1 AND KPER 2

 FMI SETTING HEAD FOR KSTP 928 AND KPER 2 TO BINARY FILE HEADS FROM KSTP 1 AND KPER 2

 SFR-1 SETTING BUDGET TERMS FOR KSTP 928 AND KPER 2 TO BUDGET FILE TERMS FROM KSTP 1 AND KPER 2

end timestep


start timestep kper="2" kstp="929" mode="normal"


 FMI SETTING BUDGET TERMS FOR KSTP 929 AND KPER 2 TO BUDGET FILE TERMS FROM KSTP 1 AND KPER 2

 FMI SETTING HEAD FOR KSTP 929 AND KPER 2 TO BINARY FILE HEADS FROM KSTP 1 AND KPER 2

 SFR-1 SETTING BUDGET TERMS FOR KSTP 929 AND KPER 2 TO BUDGET FILE TERMS FROM KSTP 1 AND KPER 2

end timestep


start timestep kper="2" kstp="930" mode="normal"


 FMI SETTING BUDGET TERMS FOR KSTP 930 AND KPER 2 TO BUDGET FILE TERMS FROM KSTP 1 AND KPER 2

 FMI SETTING HEAD FOR KSTP 930 AND KPER 2 TO BINARY FILE HEADS FROM KSTP 1 AND KPER 2

 SFR-1 SETTING BUDGET TERMS FOR KSTP 930 AND KPER 2 TO BUDGET FILE TERMS FROM KSTP 1 AND KPER 2

 CONCENTRATION WILL BE SAVED ON UNIT 1024 AT END OF TIME STEP  930, STRESS PERIOD    2

end timestep


start timestep kper="2" kstp="931" mode="normal"


 FMI SETTING BUDGET TERMS FOR KSTP 931 AND KPER 2 TO BUDGET FILE TERMS FROM KSTP 1 AND KPER 2

 FMI SETTING HEAD FOR KSTP 931 AND KPER 2 TO BINARY FILE HEADS FROM KSTP 1 AND KPER 2

 SFR-1 SETTING BUDGET TERMS FOR KSTP 931 AND KPER 2 TO BUDGET FILE TERMS FROM KSTP 1 AND KPER 2

end timestep


start timestep kper="2" kstp="932" mode="normal"


 FMI SETTING BUDGET TERMS FOR KSTP 932 AND KPER 2 TO BUDGET FILE TERMS FROM KSTP 1 AND KPER 2

 FMI SETTING HEAD FOR KSTP 932 AND KPER 2 TO BINARY FILE HEADS FROM KSTP 1 AND KPER 2

 SFR-1 SETTING BUDGET TERMS FOR KSTP 932 AND KPER 2 TO BUDGET FILE TERMS FROM KSTP 1 AND KPER 2

end timestep


start timestep kper="2" kstp="933" mode="normal"


 FMI SETTING BUDGET TERMS FOR KSTP 933 AND KPER 2 TO BUDGET FILE TERMS FROM KSTP 1 AND KPER 2

 FMI SETTING HEAD FOR KSTP 933 AND KPER 2 TO BINARY FILE HEADS FROM KSTP 1 AND KPER 2

 SFR-1 SETTING BUDGET TERMS FOR KSTP 933 AND KPER 2 TO BUDGET FILE TERMS FROM KSTP 1 AND KPER 2

end timestep


start timestep kper="2" kstp="934" mode="normal"


 FMI SETTING BUDGET TERMS FOR KSTP 934 AND KPER 2 TO BUDGET FILE TERMS FROM KSTP 1 AND KPER 2

 FMI SETTING HEAD FOR KSTP 934 AND KPER 2 TO BINARY FILE HEADS FROM KSTP 1 AND KPER 2

 SFR-1 SETTING BUDGET TERMS FOR KSTP 934 AND KPER 2 TO BUDGET FILE TERMS FROM KSTP 1 AND KPER 2

end timestep


start timestep kper="2" kstp="935" mode="normal"


 FMI SETTING BUDGET TERMS FOR KSTP 935 AND KPER 2 TO BUDGET FILE TERMS FROM KSTP 1 AND KPER 2

 FMI SETTING HEAD FOR KSTP 935 AND KPER 2 TO BINARY FILE HEADS FROM KSTP 1 AND KPER 2

 SFR-1 SETTING BUDGET TERMS FOR KSTP 935 AND KPER 2 TO BUDGET FILE TERMS FROM KSTP 1 AND KPER 2

end timestep


start timestep kper="2" kstp="936" mode="normal"


 FMI SETTING BUDGET TERMS FOR KSTP 936 AND KPER 2 TO BUDGET FILE TERMS FROM KSTP 1 AND KPER 2

 FMI SETTING HEAD FOR KSTP 936 AND KPER 2 TO BINARY FILE HEADS FROM KSTP 1 AND KPER 2

 SFR-1 SETTING BUDGET TERMS FOR KSTP 936 AND KPER 2 TO BUDGET FILE TERMS FROM KSTP 1 AND KPER 2

end timestep


start timestep kper="2" kstp="937" mode="normal"


 FMI SETTING BUDGET TERMS FOR KSTP 937 AND KPER 2 TO BUDGET FILE TERMS FROM KSTP 1 AND KPER 2

 FMI SETTING HEAD FOR KSTP 937 AND KPER 2 TO BINARY FILE HEADS FROM KSTP 1 AND KPER 2

 SFR-1 SETTING BUDGET TERMS FOR KSTP 937 AND KPER 2 TO BUDGET FILE TERMS FROM KSTP 1 AND KPER 2

end timestep


start timestep kper="2" kstp="938" mode="normal"


 FMI SETTING BUDGET TERMS FOR KSTP 938 AND KPER 2 TO BUDGET FILE TERMS FROM KSTP 1 AND KPER 2

 FMI SETTING HEAD FOR KSTP 938 AND KPER 2 TO BINARY FILE HEADS FROM KSTP 1 AND KPER 2

 SFR-1 SETTING BUDGET TERMS FOR KSTP 938 AND KPER 2 TO BUDGET FILE TERMS FROM KSTP 1 AND KPER 2

end timestep


start timestep kper="2" kstp="939" mode="normal"


 FMI SETTING BUDGET TERMS FOR KSTP 939 AND KPER 2 TO BUDGET FILE TERMS FROM KSTP 1 AND KPER 2

 FMI SETTING HEAD FOR KSTP 939 AND KPER 2 TO BINARY FILE HEADS FROM KSTP 1 AND KPER 2

 SFR-1 SETTING BUDGET TERMS FOR KSTP 939 AND KPER 2 TO BUDGET FILE TERMS FROM KSTP 1 AND KPER 2

end timestep


start timestep kper="2" kstp="940" mode="normal"


 FMI SETTING BUDGET TERMS FOR KSTP 940 AND KPER 2 TO BUDGET FILE TERMS FROM KSTP 1 AND KPER 2

 FMI SETTING HEAD FOR KSTP 940 AND KPER 2 TO BINARY FILE HEADS FROM KSTP 1 AND KPER 2

 SFR-1 SETTING BUDGET TERMS FOR KSTP 940 AND KPER 2 TO BUDGET FILE TERMS FROM KSTP 1 AND KPER 2

 CONCENTRATION WILL BE SAVED ON UNIT 1024 AT END OF TIME STEP  940, STRESS PERIOD    2

end timestep


start timestep kper="2" kstp="941" mode="normal"


 FMI SETTING BUDGET TERMS FOR KSTP 941 AND KPER 2 TO BUDGET FILE TERMS FROM KSTP 1 AND KPER 2

 FMI SETTING HEAD FOR KSTP 941 AND KPER 2 TO BINARY FILE HEADS FROM KSTP 1 AND KPER 2

 SFR-1 SETTING BUDGET TERMS FOR KSTP 941 AND KPER 2 TO BUDGET FILE TERMS FROM KSTP 1 AND KPER 2

end timestep


start timestep kper="2" kstp="942" mode="normal"


 FMI SETTING BUDGET TERMS FOR KSTP 942 AND KPER 2 TO BUDGET FILE TERMS FROM KSTP 1 AND KPER 2

 FMI SETTING HEAD FOR KSTP 942 AND KPER 2 TO BINARY FILE HEADS FROM KSTP 1 AND KPER 2

 SFR-1 SETTING BUDGET TERMS FOR KSTP 942 AND KPER 2 TO BUDGET FILE TERMS FROM KSTP 1 AND KPER 2

end timestep


start timestep kper="2" kstp="943" mode="normal"


 FMI SETTING BUDGET TERMS FOR KSTP 943 AND KPER 2 TO BUDGET FILE TERMS FROM KSTP 1 AND KPER 2

 FMI SETTING HEAD FOR KSTP 943 AND KPER 2 TO BINARY FILE HEADS FROM KSTP 1 AND KPER 2

 SFR-1 SETTING BUDGET TERMS FOR KSTP 943 AND KPER 2 TO BUDGET FILE TERMS FROM KSTP 1 AND KPER 2

end timestep


start timestep kper="2" kstp="944" mode="normal"


 FMI SETTING BUDGET TERMS FOR KSTP 944 AND KPER 2 TO BUDGET FILE TERMS FROM KSTP 1 AND KPER 2

 FMI SETTING HEAD FOR KSTP 944 AND KPER 2 TO BINARY FILE HEADS FROM KSTP 1 AND KPER 2

 SFR-1 SETTING BUDGET TERMS FOR KSTP 944 AND KPER 2 TO BUDGET FILE TERMS FROM KSTP 1 AND KPER 2

end timestep


start timestep kper="2" kstp="945" mode="normal"


 FMI SETTING BUDGET TERMS FOR KSTP 945 AND KPER 2 TO BUDGET FILE TERMS FROM KSTP 1 AND KPER 2

 FMI SETTING HEAD FOR KSTP 945 AND KPER 2 TO BINARY FILE HEADS FROM KSTP 1 AND KPER 2

 SFR-1 SETTING BUDGET TERMS FOR KSTP 945 AND KPER 2 TO BUDGET FILE TERMS FROM KSTP 1 AND KPER 2

end timestep


start timestep kper="2" kstp="946" mode="normal"


 FMI SETTING BUDGET TERMS FOR KSTP 946 AND KPER 2 TO BUDGET FILE TERMS FROM KSTP 1 AND KPER 2

 FMI SETTING HEAD FOR KSTP 946 AND KPER 2 TO BINARY FILE HEADS FROM KSTP 1 AND KPER 2

 SFR-1 SETTING BUDGET TERMS FOR KSTP 946 AND KPER 2 TO BUDGET FILE TERMS FROM KSTP 1 AND KPER 2

end timestep


start timestep kper="2" kstp="947" mode="normal"


 FMI SETTING BUDGET TERMS FOR KSTP 947 AND KPER 2 TO BUDGET FILE TERMS FROM KSTP 1 AND KPER 2

 FMI SETTING HEAD FOR KSTP 947 AND KPER 2 TO BINARY FILE HEADS FROM KSTP 1 AND KPER 2

 SFR-1 SETTING BUDGET TERMS FOR KSTP 947 AND KPER 2 TO BUDGET FILE TERMS FROM KSTP 1 AND KPER 2

end timestep


start timestep kper="2" kstp="948" mode="normal"


 FMI SETTING BUDGET TERMS FOR KSTP 948 AND KPER 2 TO BUDGET FILE TERMS FROM KSTP 1 AND KPER 2

 FMI SETTING HEAD FOR KSTP 948 AND KPER 2 TO BINARY FILE HEADS FROM KSTP 1 AND KPER 2

 SFR-1 SETTING BUDGET TERMS FOR KSTP 948 AND KPER 2 TO BUDGET FILE TERMS FROM KSTP 1 AND KPER 2

end timestep


start timestep kper="2" kstp="949" mode="normal"


 FMI SETTING BUDGET TERMS FOR KSTP 949 AND KPER 2 TO BUDGET FILE TERMS FROM KSTP 1 AND KPER 2

 FMI SETTING HEAD FOR KSTP 949 AND KPER 2 TO BINARY FILE HEADS FROM KSTP 1 AND KPER 2

 SFR-1 SETTING BUDGET TERMS FOR KSTP 949 AND KPER 2 TO BUDGET FILE TERMS FROM KSTP 1 AND KPER 2

end timestep


start timestep kper="2" kstp="950" mode="normal"


 FMI SETTING BUDGET TERMS FOR KSTP 950 AND KPER 2 TO BUDGET FILE TERMS FROM KSTP 1 AND KPER 2

 FMI SETTING HEAD FOR KSTP 950 AND KPER 2 TO BINARY FILE HEADS FROM KSTP 1 AND KPER 2

 SFR-1 SETTING BUDGET TERMS FOR KSTP 950 AND KPER 2 TO BUDGET FILE TERMS FROM KSTP 1 AND KPER 2

 CONCENTRATION WILL BE SAVED ON UNIT 1024 AT END OF TIME STEP  950, STRESS PERIOD    2

end timestep


start timestep kper="2" kstp="951" mode="normal"


 FMI SETTING BUDGET TERMS FOR KSTP 951 AND KPER 2 TO BUDGET FILE TERMS FROM KSTP 1 AND KPER 2

 FMI SETTING HEAD FOR KSTP 951 AND KPER 2 TO BINARY FILE HEADS FROM KSTP 1 AND KPER 2

 SFR-1 SETTING BUDGET TERMS FOR KSTP 951 AND KPER 2 TO BUDGET FILE TERMS FROM KSTP 1 AND KPER 2

end timestep


start timestep kper="2" kstp="952" mode="normal"


 FMI SETTING BUDGET TERMS FOR KSTP 952 AND KPER 2 TO BUDGET FILE TERMS FROM KSTP 1 AND KPER 2

 FMI SETTING HEAD FOR KSTP 952 AND KPER 2 TO BINARY FILE HEADS FROM KSTP 1 AND KPER 2

 SFR-1 SETTING BUDGET TERMS FOR KSTP 952 AND KPER 2 TO BUDGET FILE TERMS FROM KSTP 1 AND KPER 2

end timestep


start timestep kper="2" kstp="953" mode="normal"


 FMI SETTING BUDGET TERMS FOR KSTP 953 AND KPER 2 TO BUDGET FILE TERMS FROM KSTP 1 AND KPER 2

 FMI SETTING HEAD FOR KSTP 953 AND KPER 2 TO BINARY FILE HEADS FROM KSTP 1 AND KPER 2

 SFR-1 SETTING BUDGET TERMS FOR KSTP 953 AND KPER 2 TO BUDGET FILE TERMS FROM KSTP 1 AND KPER 2

end timestep


start timestep kper="2" kstp="954" mode="normal"


 FMI SETTING BUDGET TERMS FOR KSTP 954 AND KPER 2 TO BUDGET FILE TERMS FROM KSTP 1 AND KPER 2

 FMI SETTING HEAD FOR KSTP 954 AND KPER 2 TO BINARY FILE HEADS FROM KSTP 1 AND KPER 2

 SFR-1 SETTING BUDGET TERMS FOR KSTP 954 AND KPER 2 TO BUDGET FILE TERMS FROM KSTP 1 AND KPER 2

end timestep


start timestep kper="2" kstp="955" mode="normal"


 FMI SETTING BUDGET TERMS FOR KSTP 955 AND KPER 2 TO BUDGET FILE TERMS FROM KSTP 1 AND KPER 2

 FMI SETTING HEAD FOR KSTP 955 AND KPER 2 TO BINARY FILE HEADS FROM KSTP 1 AND KPER 2

 SFR-1 SETTING BUDGET TERMS FOR KSTP 955 AND KPER 2 TO BUDGET FILE TERMS FROM KSTP 1 AND KPER 2

end timestep


start timestep kper="2" kstp="956" mode="normal"


 FMI SETTING BUDGET TERMS FOR KSTP 956 AND KPER 2 TO BUDGET FILE TERMS FROM KSTP 1 AND KPER 2

 FMI SETTING HEAD FOR KSTP 956 AND KPER 2 TO BINARY FILE HEADS FROM KSTP 1 AND KPER 2

 SFR-1 SETTING BUDGET TERMS FOR KSTP 956 AND KPER 2 TO BUDGET FILE TERMS FROM KSTP 1 AND KPER 2

end timestep


start timestep kper="2" kstp="957" mode="normal"


 FMI SETTING BUDGET TERMS FOR KSTP 957 AND KPER 2 TO BUDGET FILE TERMS FROM KSTP 1 AND KPER 2

 FMI SETTING HEAD FOR KSTP 957 AND KPER 2 TO BINARY FILE HEADS FROM KSTP 1 AND KPER 2

 SFR-1 SETTING BUDGET TERMS FOR KSTP 957 AND KPER 2 TO BUDGET FILE TERMS FROM KSTP 1 AND KPER 2

end timestep


start timestep kper="2" kstp="958" mode="normal"


 FMI SETTING BUDGET TERMS FOR KSTP 958 AND KPER 2 TO BUDGET FILE TERMS FROM KSTP 1 AND KPER 2

 FMI SETTING HEAD FOR KSTP 958 AND KPER 2 TO BINARY FILE HEADS FROM KSTP 1 AND KPER 2

 SFR-1 SETTING BUDGET TERMS FOR KSTP 958 AND KPER 2 TO BUDGET FILE TERMS FROM KSTP 1 AND KPER 2

end timestep


start timestep kper="2" kstp="959" mode="normal"


 FMI SETTING BUDGET TERMS FOR KSTP 959 AND KPER 2 TO BUDGET FILE TERMS FROM KSTP 1 AND KPER 2

 FMI SETTING HEAD FOR KSTP 959 AND KPER 2 TO BINARY FILE HEADS FROM KSTP 1 AND KPER 2

 SFR-1 SETTING BUDGET TERMS FOR KSTP 959 AND KPER 2 TO BUDGET FILE TERMS FROM KSTP 1 AND KPER 2

end timestep


start timestep kper="2" kstp="960" mode="normal"


 FMI SETTING BUDGET TERMS FOR KSTP 960 AND KPER 2 TO BUDGET FILE TERMS FROM KSTP 1 AND KPER 2

 FMI SETTING HEAD FOR KSTP 960 AND KPER 2 TO BINARY FILE HEADS FROM KSTP 1 AND KPER 2

 SFR-1 SETTING BUDGET TERMS FOR KSTP 960 AND KPER 2 TO BUDGET FILE TERMS FROM KSTP 1 AND KPER 2

 CONCENTRATION WILL BE SAVED ON UNIT 1024 AT END OF TIME STEP  960, STRESS PERIOD    2

end timestep


start timestep kper="2" kstp="961" mode="normal"


 FMI SETTING BUDGET TERMS FOR KSTP 961 AND KPER 2 TO BUDGET FILE TERMS FROM KSTP 1 AND KPER 2

 FMI SETTING HEAD FOR KSTP 961 AND KPER 2 TO BINARY FILE HEADS FROM KSTP 1 AND KPER 2

 SFR-1 SETTING BUDGET TERMS FOR KSTP 961 AND KPER 2 TO BUDGET FILE TERMS FROM KSTP 1 AND KPER 2

end timestep


start timestep kper="2" kstp="962" mode="normal"


 FMI SETTING BUDGET TERMS FOR KSTP 962 AND KPER 2 TO BUDGET FILE TERMS FROM KSTP 1 AND KPER 2

 FMI SETTING HEAD FOR KSTP 962 AND KPER 2 TO BINARY FILE HEADS FROM KSTP 1 AND KPER 2

 SFR-1 SETTING BUDGET TERMS FOR KSTP 962 AND KPER 2 TO BUDGET FILE TERMS FROM KSTP 1 AND KPER 2

end timestep


start timestep kper="2" kstp="963" mode="normal"


 FMI SETTING BUDGET TERMS FOR KSTP 963 AND KPER 2 TO BUDGET FILE TERMS FROM KSTP 1 AND KPER 2

 FMI SETTING HEAD FOR KSTP 963 AND KPER 2 TO BINARY FILE HEADS FROM KSTP 1 AND KPER 2

 SFR-1 SETTING BUDGET TERMS FOR KSTP 963 AND KPER 2 TO BUDGET FILE TERMS FROM KSTP 1 AND KPER 2

end timestep


start timestep kper="2" kstp="964" mode="normal"


 FMI SETTING BUDGET TERMS FOR KSTP 964 AND KPER 2 TO BUDGET FILE TERMS FROM KSTP 1 AND KPER 2

 FMI SETTING HEAD FOR KSTP 964 AND KPER 2 TO BINARY FILE HEADS FROM KSTP 1 AND KPER 2

 SFR-1 SETTING BUDGET TERMS FOR KSTP 964 AND KPER 2 TO BUDGET FILE TERMS FROM KSTP 1 AND KPER 2

end timestep


start timestep kper="2" kstp="965" mode="normal"


 FMI SETTING BUDGET TERMS FOR KSTP 965 AND KPER 2 TO BUDGET FILE TERMS FROM KSTP 1 AND KPER 2

 FMI SETTING HEAD FOR KSTP 965 AND KPER 2 TO BINARY FILE HEADS FROM KSTP 1 AND KPER 2

 SFR-1 SETTING BUDGET TERMS FOR KSTP 965 AND KPER 2 TO BUDGET FILE TERMS FROM KSTP 1 AND KPER 2

end timestep


start timestep kper="2" kstp="966" mode="normal"


 FMI SETTING BUDGET TERMS FOR KSTP 966 AND KPER 2 TO BUDGET FILE TERMS FROM KSTP 1 AND KPER 2

 FMI SETTING HEAD FOR KSTP 966 AND KPER 2 TO BINARY FILE HEADS FROM KSTP 1 AND KPER 2

 SFR-1 SETTING BUDGET TERMS FOR KSTP 966 AND KPER 2 TO BUDGET FILE TERMS FROM KSTP 1 AND KPER 2

end timestep


start timestep kper="2" kstp="967" mode="normal"


 FMI SETTING BUDGET TERMS FOR KSTP 967 AND KPER 2 TO BUDGET FILE TERMS FROM KSTP 1 AND KPER 2

 FMI SETTING HEAD FOR KSTP 967 AND KPER 2 TO BINARY FILE HEADS FROM KSTP 1 AND KPER 2

 SFR-1 SETTING BUDGET TERMS FOR KSTP 967 AND KPER 2 TO BUDGET FILE TERMS FROM KSTP 1 AND KPER 2

end timestep


start timestep kper="2" kstp="968" mode="normal"


 FMI SETTING BUDGET TERMS FOR KSTP 968 AND KPER 2 TO BUDGET FILE TERMS FROM KSTP 1 AND KPER 2

 FMI SETTING HEAD FOR KSTP 968 AND KPER 2 TO BINARY FILE HEADS FROM KSTP 1 AND KPER 2

 SFR-1 SETTING BUDGET TERMS FOR KSTP 968 AND KPER 2 TO BUDGET FILE TERMS FROM KSTP 1 AND KPER 2

end timestep


start timestep kper="2" kstp="969" mode="normal"


 FMI SETTING BUDGET TERMS FOR KSTP 969 AND KPER 2 TO BUDGET FILE TERMS FROM KSTP 1 AND KPER 2

 FMI SETTING HEAD FOR KSTP 969 AND KPER 2 TO BINARY FILE HEADS FROM KSTP 1 AND KPER 2

 SFR-1 SETTING BUDGET TERMS FOR KSTP 969 AND KPER 2 TO BUDGET FILE TERMS FROM KSTP 1 AND KPER 2

end timestep


start timestep kper="2" kstp="970" mode="normal"


 FMI SETTING BUDGET TERMS FOR KSTP 970 AND KPER 2 TO BUDGET FILE TERMS FROM KSTP 1 AND KPER 2

 FMI SETTING HEAD FOR KSTP 970 AND KPER 2 TO BINARY FILE HEADS FROM KSTP 1 AND KPER 2

 SFR-1 SETTING BUDGET TERMS FOR KSTP 970 AND KPER 2 TO BUDGET FILE TERMS FROM KSTP 1 AND KPER 2

 CONCENTRATION WILL BE SAVED ON UNIT 1024 AT END OF TIME STEP  970, STRESS PERIOD    2

end timestep


start timestep kper="2" kstp="971" mode="normal"


 FMI SETTING BUDGET TERMS FOR KSTP 971 AND KPER 2 TO BUDGET FILE TERMS FROM KSTP 1 AND KPER 2

 FMI SETTING HEAD FOR KSTP 971 AND KPER 2 TO BINARY FILE HEADS FROM KSTP 1 AND KPER 2

 SFR-1 SETTING BUDGET TERMS FOR KSTP 971 AND KPER 2 TO BUDGET FILE TERMS FROM KSTP 1 AND KPER 2

end timestep


start timestep kper="2" kstp="972" mode="normal"


 FMI SETTING BUDGET TERMS FOR KSTP 972 AND KPER 2 TO BUDGET FILE TERMS FROM KSTP 1 AND KPER 2

 FMI SETTING HEAD FOR KSTP 972 AND KPER 2 TO BINARY FILE HEADS FROM KSTP 1 AND KPER 2

 SFR-1 SETTING BUDGET TERMS FOR KSTP 972 AND KPER 2 TO BUDGET FILE TERMS FROM KSTP 1 AND KPER 2

end timestep


start timestep kper="2" kstp="973" mode="normal"


 FMI SETTING BUDGET TERMS FOR KSTP 973 AND KPER 2 TO BUDGET FILE TERMS FROM KSTP 1 AND KPER 2

 FMI SETTING HEAD FOR KSTP 973 AND KPER 2 TO BINARY FILE HEADS FROM KSTP 1 AND KPER 2

 SFR-1 SETTING BUDGET TERMS FOR KSTP 973 AND KPER 2 TO BUDGET FILE TERMS FROM KSTP 1 AND KPER 2

end timestep


start timestep kper="2" kstp="974" mode="normal"


 FMI SETTING BUDGET TERMS FOR KSTP 974 AND KPER 2 TO BUDGET FILE TERMS FROM KSTP 1 AND KPER 2

 FMI SETTING HEAD FOR KSTP 974 AND KPER 2 TO BINARY FILE HEADS FROM KSTP 1 AND KPER 2

 SFR-1 SETTING BUDGET TERMS FOR KSTP 974 AND KPER 2 TO BUDGET FILE TERMS FROM KSTP 1 AND KPER 2

end timestep


start timestep kper="2" kstp="975" mode="normal"


 FMI SETTING BUDGET TERMS FOR KSTP 975 AND KPER 2 TO BUDGET FILE TERMS FROM KSTP 1 AND KPER 2

 FMI SETTING HEAD FOR KSTP 975 AND KPER 2 TO BINARY FILE HEADS FROM KSTP 1 AND KPER 2

 SFR-1 SETTING BUDGET TERMS FOR KSTP 975 AND KPER 2 TO BUDGET FILE TERMS FROM KSTP 1 AND KPER 2

end timestep


start timestep kper="2" kstp="976" mode="normal"


 FMI SETTING BUDGET TERMS FOR KSTP 976 AND KPER 2 TO BUDGET FILE TERMS FROM KSTP 1 AND KPER 2

 FMI SETTING HEAD FOR KSTP 976 AND KPER 2 TO BINARY FILE HEADS FROM KSTP 1 AND KPER 2

 SFR-1 SETTING BUDGET TERMS FOR KSTP 976 AND KPER 2 TO BUDGET FILE TERMS FROM KSTP 1 AND KPER 2

end timestep


start timestep kper="2" kstp="977" mode="normal"


 FMI SETTING BUDGET TERMS FOR KSTP 977 AND KPER 2 TO BUDGET FILE TERMS FROM KSTP 1 AND KPER 2

 FMI SETTING HEAD FOR KSTP 977 AND KPER 2 TO BINARY FILE HEADS FROM KSTP 1 AND KPER 2

 SFR-1 SETTING BUDGET TERMS FOR KSTP 977 AND KPER 2 TO BUDGET FILE TERMS FROM KSTP 1 AND KPER 2

end timestep


start timestep kper="2" kstp="978" mode="normal"


 FMI SETTING BUDGET TERMS FOR KSTP 978 AND KPER 2 TO BUDGET FILE TERMS FROM KSTP 1 AND KPER 2

 FMI SETTING HEAD FOR KSTP 978 AND KPER 2 TO BINARY FILE HEADS FROM KSTP 1 AND KPER 2

 SFR-1 SETTING BUDGET TERMS FOR KSTP 978 AND KPER 2 TO BUDGET FILE TERMS FROM KSTP 1 AND KPER 2

end timestep


start timestep kper="2" kstp="979" mode="normal"


 FMI SETTING BUDGET TERMS FOR KSTP 979 AND KPER 2 TO BUDGET FILE TERMS FROM KSTP 1 AND KPER 2

 FMI SETTING HEAD FOR KSTP 979 AND KPER 2 TO BINARY FILE HEADS FROM KSTP 1 AND KPER 2

 SFR-1 SETTING BUDGET TERMS FOR KSTP 979 AND KPER 2 TO BUDGET FILE TERMS FROM KSTP 1 AND KPER 2

end timestep


start timestep kper="2" kstp="980" mode="normal"


 FMI SETTING BUDGET TERMS FOR KSTP 980 AND KPER 2 TO BUDGET FILE TERMS FROM KSTP 1 AND KPER 2

 FMI SETTING HEAD FOR KSTP 980 AND KPER 2 TO BINARY FILE HEADS FROM KSTP 1 AND KPER 2

 SFR-1 SETTING BUDGET TERMS FOR KSTP 980 AND KPER 2 TO BUDGET FILE TERMS FROM KSTP 1 AND KPER 2

 CONCENTRATION WILL BE SAVED ON UNIT 1024 AT END OF TIME STEP  980, STRESS PERIOD    2

end timestep


start timestep kper="2" kstp="981" mode="normal"


 FMI SETTING BUDGET TERMS FOR KSTP 981 AND KPER 2 TO BUDGET FILE TERMS FROM KSTP 1 AND KPER 2

 FMI SETTING HEAD FOR KSTP 981 AND KPER 2 TO BINARY FILE HEADS FROM KSTP 1 AND KPER 2

 SFR-1 SETTING BUDGET TERMS FOR KSTP 981 AND KPER 2 TO BUDGET FILE TERMS FROM KSTP 1 AND KPER 2

end timestep


start timestep kper="2" kstp="982" mode="normal"


 FMI SETTING BUDGET TERMS FOR KSTP 982 AND KPER 2 TO BUDGET FILE TERMS FROM KSTP 1 AND KPER 2

 FMI SETTING HEAD FOR KSTP 982 AND KPER 2 TO BINARY FILE HEADS FROM KSTP 1 AND KPER 2

 SFR-1 SETTING BUDGET TERMS FOR KSTP 982 AND KPER 2 TO BUDGET FILE TERMS FROM KSTP 1 AND KPER 2

end timestep


start timestep kper="2" kstp="983" mode="normal"


 FMI SETTING BUDGET TERMS FOR KSTP 983 AND KPER 2 TO BUDGET FILE TERMS FROM KSTP 1 AND KPER 2

 FMI SETTING HEAD FOR KSTP 983 AND KPER 2 TO BINARY FILE HEADS FROM KSTP 1 AND KPER 2

 SFR-1 SETTING BUDGET TERMS FOR KSTP 983 AND KPER 2 TO BUDGET FILE TERMS FROM KSTP 1 AND KPER 2

end timestep


start timestep kper="2" kstp="984" mode="normal"


 FMI SETTING BUDGET TERMS FOR KSTP 984 AND KPER 2 TO BUDGET FILE TERMS FROM KSTP 1 AND KPER 2

 FMI SETTING HEAD FOR KSTP 984 AND KPER 2 TO BINARY FILE HEADS FROM KSTP 1 AND KPER 2

 SFR-1 SETTING BUDGET TERMS FOR KSTP 984 AND KPER 2 TO BUDGET FILE TERMS FROM KSTP 1 AND KPER 2

end timestep


start timestep kper="2" kstp="985" mode="normal"


 FMI SETTING BUDGET TERMS FOR KSTP 985 AND KPER 2 TO BUDGET FILE TERMS FROM KSTP 1 AND KPER 2

 FMI SETTING HEAD FOR KSTP 985 AND KPER 2 TO BINARY FILE HEADS FROM KSTP 1 AND KPER 2

 SFR-1 SETTING BUDGET TERMS FOR KSTP 985 AND KPER 2 TO BUDGET FILE TERMS FROM KSTP 1 AND KPER 2

end timestep


start timestep kper="2" kstp="986" mode="normal"


 FMI SETTING BUDGET TERMS FOR KSTP 986 AND KPER 2 TO BUDGET FILE TERMS FROM KSTP 1 AND KPER 2

 FMI SETTING HEAD FOR KSTP 986 AND KPER 2 TO BINARY FILE HEADS FROM KSTP 1 AND KPER 2

 SFR-1 SETTING BUDGET TERMS FOR KSTP 986 AND KPER 2 TO BUDGET FILE TERMS FROM KSTP 1 AND KPER 2

end timestep


start timestep kper="2" kstp="987" mode="normal"


 FMI SETTING BUDGET TERMS FOR KSTP 987 AND KPER 2 TO BUDGET FILE TERMS FROM KSTP 1 AND KPER 2

 FMI SETTING HEAD FOR KSTP 987 AND KPER 2 TO BINARY FILE HEADS FROM KSTP 1 AND KPER 2

 SFR-1 SETTING BUDGET TERMS FOR KSTP 987 AND KPER 2 TO BUDGET FILE TERMS FROM KSTP 1 AND KPER 2

end timestep


start timestep kper="2" kstp="988" mode="normal"


 FMI SETTING BUDGET TERMS FOR KSTP 988 AND KPER 2 TO BUDGET FILE TERMS FROM KSTP 1 AND KPER 2

 FMI SETTING HEAD FOR KSTP 988 AND KPER 2 TO BINARY FILE HEADS FROM KSTP 1 AND KPER 2

 SFR-1 SETTING BUDGET TERMS FOR KSTP 988 AND KPER 2 TO BUDGET FILE TERMS FROM KSTP 1 AND KPER 2

end timestep


start timestep kper="2" kstp="989" mode="normal"


 FMI SETTING BUDGET TERMS FOR KSTP 989 AND KPER 2 TO BUDGET FILE TERMS FROM KSTP 1 AND KPER 2

 FMI SETTING HEAD FOR KSTP 989 AND KPER 2 TO BINARY FILE HEADS FROM KSTP 1 AND KPER 2

 SFR-1 SETTING BUDGET TERMS FOR KSTP 989 AND KPER 2 TO BUDGET FILE TERMS FROM KSTP 1 AND KPER 2

end timestep


start timestep kper="2" kstp="990" mode="normal"


 FMI SETTING BUDGET TERMS FOR KSTP 990 AND KPER 2 TO BUDGET FILE TERMS FROM KSTP 1 AND KPER 2

 FMI SETTING HEAD FOR KSTP 990 AND KPER 2 TO BINARY FILE HEADS FROM KSTP 1 AND KPER 2

 SFR-1 SETTING BUDGET TERMS FOR KSTP 990 AND KPER 2 TO BUDGET FILE TERMS FROM KSTP 1 AND KPER 2

 CONCENTRATION WILL BE SAVED ON UNIT 1024 AT END OF TIME STEP  990, STRESS PERIOD    2

end timestep


start timestep kper="2" kstp="991" mode="normal"


 FMI SETTING BUDGET TERMS FOR KSTP 991 AND KPER 2 TO BUDGET FILE TERMS FROM KSTP 1 AND KPER 2

 FMI SETTING HEAD FOR KSTP 991 AND KPER 2 TO BINARY FILE HEADS FROM KSTP 1 AND KPER 2

 SFR-1 SETTING BUDGET TERMS FOR KSTP 991 AND KPER 2 TO BUDGET FILE TERMS FROM KSTP 1 AND KPER 2

end timestep


start timestep kper="2" kstp="992" mode="normal"


 FMI SETTING BUDGET TERMS FOR KSTP 992 AND KPER 2 TO BUDGET FILE TERMS FROM KSTP 1 AND KPER 2

 FMI SETTING HEAD FOR KSTP 992 AND KPER 2 TO BINARY FILE HEADS FROM KSTP 1 AND KPER 2

 SFR-1 SETTING BUDGET TERMS FOR KSTP 992 AND KPER 2 TO BUDGET FILE TERMS FROM KSTP 1 AND KPER 2

end timestep


start timestep kper="2" kstp="993" mode="normal"


 FMI SETTING BUDGET TERMS FOR KSTP 993 AND KPER 2 TO BUDGET FILE TERMS FROM KSTP 1 AND KPER 2

 FMI SETTING HEAD FOR KSTP 993 AND KPER 2 TO BINARY FILE HEADS FROM KSTP 1 AND KPER 2

 SFR-1 SETTING BUDGET TERMS FOR KSTP 993 AND KPER 2 TO BUDGET FILE TERMS FROM KSTP 1 AND KPER 2

end timestep


start timestep kper="2" kstp="994" mode="normal"


 FMI SETTING BUDGET TERMS FOR KSTP 994 AND KPER 2 TO BUDGET FILE TERMS FROM KSTP 1 AND KPER 2

 FMI SETTING HEAD FOR KSTP 994 AND KPER 2 TO BINARY FILE HEADS FROM KSTP 1 AND KPER 2

 SFR-1 SETTING BUDGET TERMS FOR KSTP 994 AND KPER 2 TO BUDGET FILE TERMS FROM KSTP 1 AND KPER 2

end timestep


start timestep kper="2" kstp="995" mode="normal"


 FMI SETTING BUDGET TERMS FOR KSTP 995 AND KPER 2 TO BUDGET FILE TERMS FROM KSTP 1 AND KPER 2

 FMI SETTING HEAD FOR KSTP 995 AND KPER 2 TO BINARY FILE HEADS FROM KSTP 1 AND KPER 2

 SFR-1 SETTING BUDGET TERMS FOR KSTP 995 AND KPER 2 TO BUDGET FILE TERMS FROM KSTP 1 AND KPER 2

end timestep


start timestep kper="2" kstp="996" mode="normal"


 FMI SETTING BUDGET TERMS FOR KSTP 996 AND KPER 2 TO BUDGET FILE TERMS FROM KSTP 1 AND KPER 2

 FMI SETTING HEAD FOR KSTP 996 AND KPER 2 TO BINARY FILE HEADS FROM KSTP 1 AND KPER 2

 SFR-1 SETTING BUDGET TERMS FOR KSTP 996 AND KPER 2 TO BUDGET FILE TERMS FROM KSTP 1 AND KPER 2

end timestep


start timestep kper="2" kstp="997" mode="normal"


 FMI SETTING BUDGET TERMS FOR KSTP 997 AND KPER 2 TO BUDGET FILE TERMS FROM KSTP 1 AND KPER 2

 FMI SETTING HEAD FOR KSTP 997 AND KPER 2 TO BINARY FILE HEADS FROM KSTP 1 AND KPER 2

 SFR-1 SETTING BUDGET TERMS FOR KSTP 997 AND KPER 2 TO BUDGET FILE TERMS FROM KSTP 1 AND KPER 2

end timestep


start timestep kper="2" kstp="998" mode="normal"


 FMI SETTING BUDGET TERMS FOR KSTP 998 AND KPER 2 TO BUDGET FILE TERMS FROM KSTP 1 AND KPER 2

 FMI SETTING HEAD FOR KSTP 998 AND KPER 2 TO BINARY FILE HEADS FROM KSTP 1 AND KPER 2

 SFR-1 SETTING BUDGET TERMS FOR KSTP 998 AND KPER 2 TO BUDGET FILE TERMS FROM KSTP 1 AND KPER 2

end timestep


start timestep kper="2" kstp="999" mode="normal"


 FMI SETTING BUDGET TERMS FOR KSTP 999 AND KPER 2 TO BUDGET FILE TERMS FROM KSTP 1 AND KPER 2

 FMI SETTING HEAD FOR KSTP 999 AND KPER 2 TO BINARY FILE HEADS FROM KSTP 1 AND KPER 2

 SFR-1 SETTING BUDGET TERMS FOR KSTP 999 AND KPER 2 TO BUDGET FILE TERMS FROM KSTP 1 AND KPER 2

end timestep


start timestep kper="2" kstp="1000" mode="normal"


 FMI SETTING BUDGET TERMS FOR KSTP 1000 AND KPER 2 TO BUDGET FILE TERMS FROM KSTP 1 AND KPER 2

 FMI SETTING HEAD FOR KSTP 1000 AND KPER 2 TO BINARY FILE HEADS FROM KSTP 1 AND KPER 2

 SFR-1 SETTING BUDGET TERMS FOR KSTP 1000 AND KPER 2 TO BUDGET FILE TERMS FROM KSTP 1 AND KPER 2

 CONCENTRATION WILL BE SAVED ON UNIT 1024 AT END OF TIME STEP 1000, STRESS PERIOD    2

end timestep


start timestep kper="2" kstp="1001" mode="normal"


 FMI SETTING BUDGET TERMS FOR KSTP 1001 AND KPER 2 TO BUDGET FILE TERMS FROM KSTP 1 AND KPER 2

 FMI SETTING HEAD FOR KSTP 1001 AND KPER 2 TO BINARY FILE HEADS FROM KSTP 1 AND KPER 2

 SFR-1 SETTING BUDGET TERMS FOR KSTP 1001 AND KPER 2 TO BUDGET FILE TERMS FROM KSTP 1 AND KPER 2

end timestep


start timestep kper="2" kstp="1002" mode="normal"


 FMI SETTING BUDGET TERMS FOR KSTP 1002 AND KPER 2 TO BUDGET FILE TERMS FROM KSTP 1 AND KPER 2

 FMI SETTING HEAD FOR KSTP 1002 AND KPER 2 TO BINARY FILE HEADS FROM KSTP 1 AND KPER 2

 SFR-1 SETTING BUDGET TERMS FOR KSTP 1002 AND KPER 2 TO BUDGET FILE TERMS FROM KSTP 1 AND KPER 2

end timestep


start timestep kper="2" kstp="1003" mode="normal"


 FMI SETTING BUDGET TERMS FOR KSTP 1003 AND KPER 2 TO BUDGET FILE TERMS FROM KSTP 1 AND KPER 2

 FMI SETTING HEAD FOR KSTP 1003 AND KPER 2 TO BINARY FILE HEADS FROM KSTP 1 AND KPER 2

 SFR-1 SETTING BUDGET TERMS FOR KSTP 1003 AND KPER 2 TO BUDGET FILE TERMS FROM KSTP 1 AND KPER 2

end timestep


start timestep kper="2" kstp="1004" mode="normal"


 FMI SETTING BUDGET TERMS FOR KSTP 1004 AND KPER 2 TO BUDGET FILE TERMS FROM KSTP 1 AND KPER 2

 FMI SETTING HEAD FOR KSTP 1004 AND KPER 2 TO BINARY FILE HEADS FROM KSTP 1 AND KPER 2

 SFR-1 SETTING BUDGET TERMS FOR KSTP 1004 AND KPER 2 TO BUDGET FILE TERMS FROM KSTP 1 AND KPER 2

end timestep


start timestep kper="2" kstp="1005" mode="normal"


 FMI SETTING BUDGET TERMS FOR KSTP 1005 AND KPER 2 TO BUDGET FILE TERMS FROM KSTP 1 AND KPER 2

 FMI SETTING HEAD FOR KSTP 1005 AND KPER 2 TO BINARY FILE HEADS FROM KSTP 1 AND KPER 2

 SFR-1 SETTING BUDGET TERMS FOR KSTP 1005 AND KPER 2 TO BUDGET FILE TERMS FROM KSTP 1 AND KPER 2

end timestep


start timestep kper="2" kstp="1006" mode="normal"


 FMI SETTING BUDGET TERMS FOR KSTP 1006 AND KPER 2 TO BUDGET FILE TERMS FROM KSTP 1 AND KPER 2

 FMI SETTING HEAD FOR KSTP 1006 AND KPER 2 TO BINARY FILE HEADS FROM KSTP 1 AND KPER 2

 SFR-1 SETTING BUDGET TERMS FOR KSTP 1006 AND KPER 2 TO BUDGET FILE TERMS FROM KSTP 1 AND KPER 2

end timestep


start timestep kper="2" kstp="1007" mode="normal"


 FMI SETTING BUDGET TERMS FOR KSTP 1007 AND KPER 2 TO BUDGET FILE TERMS FROM KSTP 1 AND KPER 2

 FMI SETTING HEAD FOR KSTP 1007 AND KPER 2 TO BINARY FILE HEADS FROM KSTP 1 AND KPER 2

 SFR-1 SETTING BUDGET TERMS FOR KSTP 1007 AND KPER 2 TO BUDGET FILE TERMS FROM KSTP 1 AND KPER 2

end timestep


start timestep kper="2" kstp="1008" mode="normal"


 FMI SETTING BUDGET TERMS FOR KSTP 1008 AND KPER 2 TO BUDGET FILE TERMS FROM KSTP 1 AND KPER 2

 FMI SETTING HEAD FOR KSTP 1008 AND KPER 2 TO BINARY FILE HEADS FROM KSTP 1 AND KPER 2

 SFR-1 SETTING BUDGET TERMS FOR KSTP 1008 AND KPER 2 TO BUDGET FILE TERMS FROM KSTP 1 AND KPER 2

end timestep


start timestep kper="2" kstp="1009" mode="normal"


 FMI SETTING BUDGET TERMS FOR KSTP 1009 AND KPER 2 TO BUDGET FILE TERMS FROM KSTP 1 AND KPER 2

 FMI SETTING HEAD FOR KSTP 1009 AND KPER 2 TO BINARY FILE HEADS FROM KSTP 1 AND KPER 2

 SFR-1 SETTING BUDGET TERMS FOR KSTP 1009 AND KPER 2 TO BUDGET FILE TERMS FROM KSTP 1 AND KPER 2

end timestep


start timestep kper="2" kstp="1010" mode="normal"


 FMI SETTING BUDGET TERMS FOR KSTP 1010 AND KPER 2 TO BUDGET FILE TERMS FROM KSTP 1 AND KPER 2

 FMI SETTING HEAD FOR KSTP 1010 AND KPER 2 TO BINARY FILE HEADS FROM KSTP 1 AND KPER 2

 SFR-1 SETTING BUDGET TERMS FOR KSTP 1010 AND KPER 2 TO BUDGET FILE TERMS FROM KSTP 1 AND KPER 2

 CONCENTRATION WILL BE SAVED ON UNIT 1024 AT END OF TIME STEP 1010, STRESS PERIOD    2

end timestep


start timestep kper="2" kstp="1011" mode="normal"


 FMI SETTING BUDGET TERMS FOR KSTP 1011 AND KPER 2 TO BUDGET FILE TERMS FROM KSTP 1 AND KPER 2

 FMI SETTING HEAD FOR KSTP 1011 AND KPER 2 TO BINARY FILE HEADS FROM KSTP 1 AND KPER 2

 SFR-1 SETTING BUDGET TERMS FOR KSTP 1011 AND KPER 2 TO BUDGET FILE TERMS FROM KSTP 1 AND KPER 2

end timestep


start timestep kper="2" kstp="1012" mode="normal"


 FMI SETTING BUDGET TERMS FOR KSTP 1012 AND KPER 2 TO BUDGET FILE TERMS FROM KSTP 1 AND KPER 2

 FMI SETTING HEAD FOR KSTP 1012 AND KPER 2 TO BINARY FILE HEADS FROM KSTP 1 AND KPER 2

 SFR-1 SETTING BUDGET TERMS FOR KSTP 1012 AND KPER 2 TO BUDGET FILE TERMS FROM KSTP 1 AND KPER 2

end timestep


start timestep kper="2" kstp="1013" mode="normal"


 FMI SETTING BUDGET TERMS FOR KSTP 1013 AND KPER 2 TO BUDGET FILE TERMS FROM KSTP 1 AND KPER 2

 FMI SETTING HEAD FOR KSTP 1013 AND KPER 2 TO BINARY FILE HEADS FROM KSTP 1 AND KPER 2

 SFR-1 SETTING BUDGET TERMS FOR KSTP 1013 AND KPER 2 TO BUDGET FILE TERMS FROM KSTP 1 AND KPER 2

end timestep


start timestep kper="2" kstp="1014" mode="normal"


 FMI SETTING BUDGET TERMS FOR KSTP 1014 AND KPER 2 TO BUDGET FILE TERMS FROM KSTP 1 AND KPER 2

 FMI SETTING HEAD FOR KSTP 1014 AND KPER 2 TO BINARY FILE HEADS FROM KSTP 1 AND KPER 2

 SFR-1 SETTING BUDGET TERMS FOR KSTP 1014 AND KPER 2 TO BUDGET FILE TERMS FROM KSTP 1 AND KPER 2

end timestep


start timestep kper="2" kstp="1015" mode="normal"


 FMI SETTING BUDGET TERMS FOR KSTP 1015 AND KPER 2 TO BUDGET FILE TERMS FROM KSTP 1 AND KPER 2

 FMI SETTING HEAD FOR KSTP 1015 AND KPER 2 TO BINARY FILE HEADS FROM KSTP 1 AND KPER 2

 SFR-1 SETTING BUDGET TERMS FOR KSTP 1015 AND KPER 2 TO BUDGET FILE TERMS FROM KSTP 1 AND KPER 2

end timestep


start timestep kper="2" kstp="1016" mode="normal"


 FMI SETTING BUDGET TERMS FOR KSTP 1016 AND KPER 2 TO BUDGET FILE TERMS FROM KSTP 1 AND KPER 2

 FMI SETTING HEAD FOR KSTP 1016 AND KPER 2 TO BINARY FILE HEADS FROM KSTP 1 AND KPER 2

 SFR-1 SETTING BUDGET TERMS FOR KSTP 1016 AND KPER 2 TO BUDGET FILE TERMS FROM KSTP 1 AND KPER 2

end timestep


start timestep kper="2" kstp="1017" mode="normal"


 FMI SETTING BUDGET TERMS FOR KSTP 1017 AND KPER 2 TO BUDGET FILE TERMS FROM KSTP 1 AND KPER 2

 FMI SETTING HEAD FOR KSTP 1017 AND KPER 2 TO BINARY FILE HEADS FROM KSTP 1 AND KPER 2

 SFR-1 SETTING BUDGET TERMS FOR KSTP 1017 AND KPER 2 TO BUDGET FILE TERMS FROM KSTP 1 AND KPER 2

end timestep


start timestep kper="2" kstp="1018" mode="normal"


 FMI SETTING BUDGET TERMS FOR KSTP 1018 AND KPER 2 TO BUDGET FILE TERMS FROM KSTP 1 AND KPER 2

 FMI SETTING HEAD FOR KSTP 1018 AND KPER 2 TO BINARY FILE HEADS FROM KSTP 1 AND KPER 2

 SFR-1 SETTING BUDGET TERMS FOR KSTP 1018 AND KPER 2 TO BUDGET FILE TERMS FROM KSTP 1 AND KPER 2

end timestep


start timestep kper="2" kstp="1019" mode="normal"


 FMI SETTING BUDGET TERMS FOR KSTP 1019 AND KPER 2 TO BUDGET FILE TERMS FROM KSTP 1 AND KPER 2

 FMI SETTING HEAD FOR KSTP 1019 AND KPER 2 TO BINARY FILE HEADS FROM KSTP 1 AND KPER 2

 SFR-1 SETTING BUDGET TERMS FOR KSTP 1019 AND KPER 2 TO BUDGET FILE TERMS FROM KSTP 1 AND KPER 2

end timestep


start timestep kper="2" kstp="1020" mode="normal"


 FMI SETTING BUDGET TERMS FOR KSTP 1020 AND KPER 2 TO BUDGET FILE TERMS FROM KSTP 1 AND KPER 2

 FMI SETTING HEAD FOR KSTP 1020 AND KPER 2 TO BINARY FILE HEADS FROM KSTP 1 AND KPER 2

 SFR-1 SETTING BUDGET TERMS FOR KSTP 1020 AND KPER 2 TO BUDGET FILE TERMS FROM KSTP 1 AND KPER 2

 CONCENTRATION WILL BE SAVED ON UNIT 1024 AT END OF TIME STEP 1020, STRESS PERIOD    2

end timestep


start timestep kper="2" kstp="1021" mode="normal"


 FMI SETTING BUDGET TERMS FOR KSTP 1021 AND KPER 2 TO BUDGET FILE TERMS FROM KSTP 1 AND KPER 2

 FMI SETTING HEAD FOR KSTP 1021 AND KPER 2 TO BINARY FILE HEADS FROM KSTP 1 AND KPER 2

 SFR-1 SETTING BUDGET TERMS FOR KSTP 1021 AND KPER 2 TO BUDGET FILE TERMS FROM KSTP 1 AND KPER 2

end timestep


start timestep kper="2" kstp="1022" mode="normal"


 FMI SETTING BUDGET TERMS FOR KSTP 1022 AND KPER 2 TO BUDGET FILE TERMS FROM KSTP 1 AND KPER 2

 FMI SETTING HEAD FOR KSTP 1022 AND KPER 2 TO BINARY FILE HEADS FROM KSTP 1 AND KPER 2

 SFR-1 SETTING BUDGET TERMS FOR KSTP 1022 AND KPER 2 TO BUDGET FILE TERMS FROM KSTP 1 AND KPER 2

end timestep


start timestep kper="2" kstp="1023" mode="normal"


 FMI SETTING BUDGET TERMS FOR KSTP 1023 AND KPER 2 TO BUDGET FILE TERMS FROM KSTP 1 AND KPER 2

 FMI SETTING HEAD FOR KSTP 1023 AND KPER 2 TO BINARY FILE HEADS FROM KSTP 1 AND KPER 2

 SFR-1 SETTING BUDGET TERMS FOR KSTP 1023 AND KPER 2 TO BUDGET FILE TERMS FROM KSTP 1 AND KPER 2

end timestep


start timestep kper="2" kstp="1024" mode="normal"


 FMI SETTING BUDGET TERMS FOR KSTP 1024 AND KPER 2 TO BUDGET FILE TERMS FROM KSTP 1 AND KPER 2

 FMI SETTING HEAD FOR KSTP 1024 AND KPER 2 TO BINARY FILE HEADS FROM KSTP 1 AND KPER 2

 SFR-1 SETTING BUDGET TERMS FOR KSTP 1024 AND KPER 2 TO BUDGET FILE TERMS FROM KSTP 1 AND KPER 2

end timestep


start timestep kper="2" kstp="1025" mode="normal"


 FMI SETTING BUDGET TERMS FOR KSTP 1025 AND KPER 2 TO BUDGET FILE TERMS FROM KSTP 1 AND KPER 2

 FMI SETTING HEAD FOR KSTP 1025 AND KPER 2 TO BINARY FILE HEADS FROM KSTP 1 AND KPER 2

 SFR-1 SETTING BUDGET TERMS FOR KSTP 1025 AND KPER 2 TO BUDGET FILE TERMS FROM KSTP 1 AND KPER 2

end timestep


start timestep kper="2" kstp="1026" mode="normal"


 FMI SETTING BUDGET TERMS FOR KSTP 1026 AND KPER 2 TO BUDGET FILE TERMS FROM KSTP 1 AND KPER 2

 FMI SETTING HEAD FOR KSTP 1026 AND KPER 2 TO BINARY FILE HEADS FROM KSTP 1 AND KPER 2

 SFR-1 SETTING BUDGET TERMS FOR KSTP 1026 AND KPER 2 TO BUDGET FILE TERMS FROM KSTP 1 AND KPER 2

end timestep


start timestep kper="2" kstp="1027" mode="normal"


 FMI SETTING BUDGET TERMS FOR KSTP 1027 AND KPER 2 TO BUDGET FILE TERMS FROM KSTP 1 AND KPER 2

 FMI SETTING HEAD FOR KSTP 1027 AND KPER 2 TO BINARY FILE HEADS FROM KSTP 1 AND KPER 2

 SFR-1 SETTING BUDGET TERMS FOR KSTP 1027 AND KPER 2 TO BUDGET FILE TERMS FROM KSTP 1 AND KPER 2

end timestep


start timestep kper="2" kstp="1028" mode="normal"


 FMI SETTING BUDGET TERMS FOR KSTP 1028 AND KPER 2 TO BUDGET FILE TERMS FROM KSTP 1 AND KPER 2

 FMI SETTING HEAD FOR KSTP 1028 AND KPER 2 TO BINARY FILE HEADS FROM KSTP 1 AND KPER 2

 SFR-1 SETTING BUDGET TERMS FOR KSTP 1028 AND KPER 2 TO BUDGET FILE TERMS FROM KSTP 1 AND KPER 2

end timestep


start timestep kper="2" kstp="1029" mode="normal"


 FMI SETTING BUDGET TERMS FOR KSTP 1029 AND KPER 2 TO BUDGET FILE TERMS FROM KSTP 1 AND KPER 2

 FMI SETTING HEAD FOR KSTP 1029 AND KPER 2 TO BINARY FILE HEADS FROM KSTP 1 AND KPER 2

 SFR-1 SETTING BUDGET TERMS FOR KSTP 1029 AND KPER 2 TO BUDGET FILE TERMS FROM KSTP 1 AND KPER 2

end timestep


start timestep kper="2" kstp="1030" mode="normal"


 FMI SETTING BUDGET TERMS FOR KSTP 1030 AND KPER 2 TO BUDGET FILE TERMS FROM KSTP 1 AND KPER 2

 FMI SETTING HEAD FOR KSTP 1030 AND KPER 2 TO BINARY FILE HEADS FROM KSTP 1 AND KPER 2

 SFR-1 SETTING BUDGET TERMS FOR KSTP 1030 AND KPER 2 TO BUDGET FILE TERMS FROM KSTP 1 AND KPER 2

 CONCENTRATION WILL BE SAVED ON UNIT 1024 AT END OF TIME STEP 1030, STRESS PERIOD    2

end timestep


start timestep kper="2" kstp="1031" mode="normal"


 FMI SETTING BUDGET TERMS FOR KSTP 1031 AND KPER 2 TO BUDGET FILE TERMS FROM KSTP 1 AND KPER 2

 FMI SETTING HEAD FOR KSTP 1031 AND KPER 2 TO BINARY FILE HEADS FROM KSTP 1 AND KPER 2

 SFR-1 SETTING BUDGET TERMS FOR KSTP 1031 AND KPER 2 TO BUDGET FILE TERMS FROM KSTP 1 AND KPER 2

end timestep


start timestep kper="2" kstp="1032" mode="normal"


 FMI SETTING BUDGET TERMS FOR KSTP 1032 AND KPER 2 TO BUDGET FILE TERMS FROM KSTP 1 AND KPER 2

 FMI SETTING HEAD FOR KSTP 1032 AND KPER 2 TO BINARY FILE HEADS FROM KSTP 1 AND KPER 2

 SFR-1 SETTING BUDGET TERMS FOR KSTP 1032 AND KPER 2 TO BUDGET FILE TERMS FROM KSTP 1 AND KPER 2

end timestep


start timestep kper="2" kstp="1033" mode="normal"


 FMI SETTING BUDGET TERMS FOR KSTP 1033 AND KPER 2 TO BUDGET FILE TERMS FROM KSTP 1 AND KPER 2

 FMI SETTING HEAD FOR KSTP 1033 AND KPER 2 TO BINARY FILE HEADS FROM KSTP 1 AND KPER 2

 SFR-1 SETTING BUDGET TERMS FOR KSTP 1033 AND KPER 2 TO BUDGET FILE TERMS FROM KSTP 1 AND KPER 2

end timestep


start timestep kper="2" kstp="1034" mode="normal"


 FMI SETTING BUDGET TERMS FOR KSTP 1034 AND KPER 2 TO BUDGET FILE TERMS FROM KSTP 1 AND KPER 2

 FMI SETTING HEAD FOR KSTP 1034 AND KPER 2 TO BINARY FILE HEADS FROM KSTP 1 AND KPER 2

 SFR-1 SETTING BUDGET TERMS FOR KSTP 1034 AND KPER 2 TO BUDGET FILE TERMS FROM KSTP 1 AND KPER 2

end timestep


start timestep kper="2" kstp="1035" mode="normal"


 FMI SETTING BUDGET TERMS FOR KSTP 1035 AND KPER 2 TO BUDGET FILE TERMS FROM KSTP 1 AND KPER 2

 FMI SETTING HEAD FOR KSTP 1035 AND KPER 2 TO BINARY FILE HEADS FROM KSTP 1 AND KPER 2

 SFR-1 SETTING BUDGET TERMS FOR KSTP 1035 AND KPER 2 TO BUDGET FILE TERMS FROM KSTP 1 AND KPER 2

end timestep


start timestep kper="2" kstp="1036" mode="normal"


 FMI SETTING BUDGET TERMS FOR KSTP 1036 AND KPER 2 TO BUDGET FILE TERMS FROM KSTP 1 AND KPER 2

 FMI SETTING HEAD FOR KSTP 1036 AND KPER 2 TO BINARY FILE HEADS FROM KSTP 1 AND KPER 2

 SFR-1 SETTING BUDGET TERMS FOR KSTP 1036 AND KPER 2 TO BUDGET FILE TERMS FROM KSTP 1 AND KPER 2

end timestep


start timestep kper="2" kstp="1037" mode="normal"


 FMI SETTING BUDGET TERMS FOR KSTP 1037 AND KPER 2 TO BUDGET FILE TERMS FROM KSTP 1 AND KPER 2

 FMI SETTING HEAD FOR KSTP 1037 AND KPER 2 TO BINARY FILE HEADS FROM KSTP 1 AND KPER 2

 SFR-1 SETTING BUDGET TERMS FOR KSTP 1037 AND KPER 2 TO BUDGET FILE TERMS FROM KSTP 1 AND KPER 2

end timestep


start timestep kper="2" kstp="1038" mode="normal"


 FMI SETTING BUDGET TERMS FOR KSTP 1038 AND KPER 2 TO BUDGET FILE TERMS FROM KSTP 1 AND KPER 2

 FMI SETTING HEAD FOR KSTP 1038 AND KPER 2 TO BINARY FILE HEADS FROM KSTP 1 AND KPER 2

 SFR-1 SETTING BUDGET TERMS FOR KSTP 1038 AND KPER 2 TO BUDGET FILE TERMS FROM KSTP 1 AND KPER 2

end timestep


start timestep kper="2" kstp="1039" mode="normal"


 FMI SETTING BUDGET TERMS FOR KSTP 1039 AND KPER 2 TO BUDGET FILE TERMS FROM KSTP 1 AND KPER 2

 FMI SETTING HEAD FOR KSTP 1039 AND KPER 2 TO BINARY FILE HEADS FROM KSTP 1 AND KPER 2

 SFR-1 SETTING BUDGET TERMS FOR KSTP 1039 AND KPER 2 TO BUDGET FILE TERMS FROM KSTP 1 AND KPER 2

end timestep


start timestep kper="2" kstp="1040" mode="normal"


 FMI SETTING BUDGET TERMS FOR KSTP 1040 AND KPER 2 TO BUDGET FILE TERMS FROM KSTP 1 AND KPER 2

 FMI SETTING HEAD FOR KSTP 1040 AND KPER 2 TO BINARY FILE HEADS FROM KSTP 1 AND KPER 2

 SFR-1 SETTING BUDGET TERMS FOR KSTP 1040 AND KPER 2 TO BUDGET FILE TERMS FROM KSTP 1 AND KPER 2

 CONCENTRATION WILL BE SAVED ON UNIT 1024 AT END OF TIME STEP 1040, STRESS PERIOD    2

end timestep


start timestep kper="2" kstp="1041" mode="normal"


 FMI SETTING BUDGET TERMS FOR KSTP 1041 AND KPER 2 TO BUDGET FILE TERMS FROM KSTP 1 AND KPER 2

 FMI SETTING HEAD FOR KSTP 1041 AND KPER 2 TO BINARY FILE HEADS FROM KSTP 1 AND KPER 2

 SFR-1 SETTING BUDGET TERMS FOR KSTP 1041 AND KPER 2 TO BUDGET FILE TERMS FROM KSTP 1 AND KPER 2

end timestep


start timestep kper="2" kstp="1042" mode="normal"


 FMI SETTING BUDGET TERMS FOR KSTP 1042 AND KPER 2 TO BUDGET FILE TERMS FROM KSTP 1 AND KPER 2

 FMI SETTING HEAD FOR KSTP 1042 AND KPER 2 TO BINARY FILE HEADS FROM KSTP 1 AND KPER 2

 SFR-1 SETTING BUDGET TERMS FOR KSTP 1042 AND KPER 2 TO BUDGET FILE TERMS FROM KSTP 1 AND KPER 2

end timestep


start timestep kper="2" kstp="1043" mode="normal"


 FMI SETTING BUDGET TERMS FOR KSTP 1043 AND KPER 2 TO BUDGET FILE TERMS FROM KSTP 1 AND KPER 2

 FMI SETTING HEAD FOR KSTP 1043 AND KPER 2 TO BINARY FILE HEADS FROM KSTP 1 AND KPER 2

 SFR-1 SETTING BUDGET TERMS FOR KSTP 1043 AND KPER 2 TO BUDGET FILE TERMS FROM KSTP 1 AND KPER 2

end timestep


start timestep kper="2" kstp="1044" mode="normal"


 FMI SETTING BUDGET TERMS FOR KSTP 1044 AND KPER 2 TO BUDGET FILE TERMS FROM KSTP 1 AND KPER 2

 FMI SETTING HEAD FOR KSTP 1044 AND KPER 2 TO BINARY FILE HEADS FROM KSTP 1 AND KPER 2

 SFR-1 SETTING BUDGET TERMS FOR KSTP 1044 AND KPER 2 TO BUDGET FILE TERMS FROM KSTP 1 AND KPER 2

end timestep


start timestep kper="2" kstp="1045" mode="normal"


 FMI SETTING BUDGET TERMS FOR KSTP 1045 AND KPER 2 TO BUDGET FILE TERMS FROM KSTP 1 AND KPER 2

 FMI SETTING HEAD FOR KSTP 1045 AND KPER 2 TO BINARY FILE HEADS FROM KSTP 1 AND KPER 2

 SFR-1 SETTING BUDGET TERMS FOR KSTP 1045 AND KPER 2 TO BUDGET FILE TERMS FROM KSTP 1 AND KPER 2

end timestep


start timestep kper="2" kstp="1046" mode="normal"


 FMI SETTING BUDGET TERMS FOR KSTP 1046 AND KPER 2 TO BUDGET FILE TERMS FROM KSTP 1 AND KPER 2

 FMI SETTING HEAD FOR KSTP 1046 AND KPER 2 TO BINARY FILE HEADS FROM KSTP 1 AND KPER 2

 SFR-1 SETTING BUDGET TERMS FOR KSTP 1046 AND KPER 2 TO BUDGET FILE TERMS FROM KSTP 1 AND KPER 2

end timestep


start timestep kper="2" kstp="1047" mode="normal"


 FMI SETTING BUDGET TERMS FOR KSTP 1047 AND KPER 2 TO BUDGET FILE TERMS FROM KSTP 1 AND KPER 2

 FMI SETTING HEAD FOR KSTP 1047 AND KPER 2 TO BINARY FILE HEADS FROM KSTP 1 AND KPER 2

 SFR-1 SETTING BUDGET TERMS FOR KSTP 1047 AND KPER 2 TO BUDGET FILE TERMS FROM KSTP 1 AND KPER 2

end timestep


start timestep kper="2" kstp="1048" mode="normal"


 FMI SETTING BUDGET TERMS FOR KSTP 1048 AND KPER 2 TO BUDGET FILE TERMS FROM KSTP 1 AND KPER 2

 FMI SETTING HEAD FOR KSTP 1048 AND KPER 2 TO BINARY FILE HEADS FROM KSTP 1 AND KPER 2

 SFR-1 SETTING BUDGET TERMS FOR KSTP 1048 AND KPER 2 TO BUDGET FILE TERMS FROM KSTP 1 AND KPER 2

end timestep


start timestep kper="2" kstp="1049" mode="normal"


 FMI SETTING BUDGET TERMS FOR KSTP 1049 AND KPER 2 TO BUDGET FILE TERMS FROM KSTP 1 AND KPER 2

 FMI SETTING HEAD FOR KSTP 1049 AND KPER 2 TO BINARY FILE HEADS FROM KSTP 1 AND KPER 2

 SFR-1 SETTING BUDGET TERMS FOR KSTP 1049 AND KPER 2 TO BUDGET FILE TERMS FROM KSTP 1 AND KPER 2

end timestep


start timestep kper="2" kstp="1050" mode="normal"


 FMI SETTING BUDGET TERMS FOR KSTP 1050 AND KPER 2 TO BUDGET FILE TERMS FROM KSTP 1 AND KPER 2

 FMI SETTING HEAD FOR KSTP 1050 AND KPER 2 TO BINARY FILE HEADS FROM KSTP 1 AND KPER 2

 SFR-1 SETTING BUDGET TERMS FOR KSTP 1050 AND KPER 2 TO BUDGET FILE TERMS FROM KSTP 1 AND KPER 2

 CONCENTRATION WILL BE SAVED ON UNIT 1024 AT END OF TIME STEP 1050, STRESS PERIOD    2

end timestep


start timestep kper="2" kstp="1051" mode="normal"


 FMI SETTING BUDGET TERMS FOR KSTP 1051 AND KPER 2 TO BUDGET FILE TERMS FROM KSTP 1 AND KPER 2

 FMI SETTING HEAD FOR KSTP 1051 AND KPER 2 TO BINARY FILE HEADS FROM KSTP 1 AND KPER 2

 SFR-1 SETTING BUDGET TERMS FOR KSTP 1051 AND KPER 2 TO BUDGET FILE TERMS FROM KSTP 1 AND KPER 2

end timestep


start timestep kper="2" kstp="1052" mode="normal"


 FMI SETTING BUDGET TERMS FOR KSTP 1052 AND KPER 2 TO BUDGET FILE TERMS FROM KSTP 1 AND KPER 2

 FMI SETTING HEAD FOR KSTP 1052 AND KPER 2 TO BINARY FILE HEADS FROM KSTP 1 AND KPER 2

 SFR-1 SETTING BUDGET TERMS FOR KSTP 1052 AND KPER 2 TO BUDGET FILE TERMS FROM KSTP 1 AND KPER 2

end timestep


start timestep kper="2" kstp="1053" mode="normal"


 FMI SETTING BUDGET TERMS FOR KSTP 1053 AND KPER 2 TO BUDGET FILE TERMS FROM KSTP 1 AND KPER 2

 FMI SETTING HEAD FOR KSTP 1053 AND KPER 2 TO BINARY FILE HEADS FROM KSTP 1 AND KPER 2

 SFR-1 SETTING BUDGET TERMS FOR KSTP 1053 AND KPER 2 TO BUDGET FILE TERMS FROM KSTP 1 AND KPER 2

end timestep


start timestep kper="2" kstp="1054" mode="normal"


 FMI SETTING BUDGET TERMS FOR KSTP 1054 AND KPER 2 TO BUDGET FILE TERMS FROM KSTP 1 AND KPER 2

 FMI SETTING HEAD FOR KSTP 1054 AND KPER 2 TO BINARY FILE HEADS FROM KSTP 1 AND KPER 2

 SFR-1 SETTING BUDGET TERMS FOR KSTP 1054 AND KPER 2 TO BUDGET FILE TERMS FROM KSTP 1 AND KPER 2

end timestep


start timestep kper="2" kstp="1055" mode="normal"


 FMI SETTING BUDGET TERMS FOR KSTP 1055 AND KPER 2 TO BUDGET FILE TERMS FROM KSTP 1 AND KPER 2

 FMI SETTING HEAD FOR KSTP 1055 AND KPER 2 TO BINARY FILE HEADS FROM KSTP 1 AND KPER 2

 SFR-1 SETTING BUDGET TERMS FOR KSTP 1055 AND KPER 2 TO BUDGET FILE TERMS FROM KSTP 1 AND KPER 2

end timestep


start timestep kper="2" kstp="1056" mode="normal"


 FMI SETTING BUDGET TERMS FOR KSTP 1056 AND KPER 2 TO BUDGET FILE TERMS FROM KSTP 1 AND KPER 2

 FMI SETTING HEAD FOR KSTP 1056 AND KPER 2 TO BINARY FILE HEADS FROM KSTP 1 AND KPER 2

 SFR-1 SETTING BUDGET TERMS FOR KSTP 1056 AND KPER 2 TO BUDGET FILE TERMS FROM KSTP 1 AND KPER 2

end timestep


start timestep kper="2" kstp="1057" mode="normal"


 FMI SETTING BUDGET TERMS FOR KSTP 1057 AND KPER 2 TO BUDGET FILE TERMS FROM KSTP 1 AND KPER 2

 FMI SETTING HEAD FOR KSTP 1057 AND KPER 2 TO BINARY FILE HEADS FROM KSTP 1 AND KPER 2

 SFR-1 SETTING BUDGET TERMS FOR KSTP 1057 AND KPER 2 TO BUDGET FILE TERMS FROM KSTP 1 AND KPER 2

end timestep


start timestep kper="2" kstp="1058" mode="normal"


 FMI SETTING BUDGET TERMS FOR KSTP 1058 AND KPER 2 TO BUDGET FILE TERMS FROM KSTP 1 AND KPER 2

 FMI SETTING HEAD FOR KSTP 1058 AND KPER 2 TO BINARY FILE HEADS FROM KSTP 1 AND KPER 2

 SFR-1 SETTING BUDGET TERMS FOR KSTP 1058 AND KPER 2 TO BUDGET FILE TERMS FROM KSTP 1 AND KPER 2

end timestep


start timestep kper="2" kstp="1059" mode="normal"


 FMI SETTING BUDGET TERMS FOR KSTP 1059 AND KPER 2 TO BUDGET FILE TERMS FROM KSTP 1 AND KPER 2

 FMI SETTING HEAD FOR KSTP 1059 AND KPER 2 TO BINARY FILE HEADS FROM KSTP 1 AND KPER 2

 SFR-1 SETTING BUDGET TERMS FOR KSTP 1059 AND KPER 2 TO BUDGET FILE TERMS FROM KSTP 1 AND KPER 2

end timestep


start timestep kper="2" kstp="1060" mode="normal"


 FMI SETTING BUDGET TERMS FOR KSTP 1060 AND KPER 2 TO BUDGET FILE TERMS FROM KSTP 1 AND KPER 2

 FMI SETTING HEAD FOR KSTP 1060 AND KPER 2 TO BINARY FILE HEADS FROM KSTP 1 AND KPER 2

 SFR-1 SETTING BUDGET TERMS FOR KSTP 1060 AND KPER 2 TO BUDGET FILE TERMS FROM KSTP 1 AND KPER 2

 CONCENTRATION WILL BE SAVED ON UNIT 1024 AT END OF TIME STEP 1060, STRESS PERIOD    2

end timestep


start timestep kper="2" kstp="1061" mode="normal"


 FMI SETTING BUDGET TERMS FOR KSTP 1061 AND KPER 2 TO BUDGET FILE TERMS FROM KSTP 1 AND KPER 2

 FMI SETTING HEAD FOR KSTP 1061 AND KPER 2 TO BINARY FILE HEADS FROM KSTP 1 AND KPER 2

 SFR-1 SETTING BUDGET TERMS FOR KSTP 1061 AND KPER 2 TO BUDGET FILE TERMS FROM KSTP 1 AND KPER 2

end timestep


start timestep kper="2" kstp="1062" mode="normal"


 FMI SETTING BUDGET TERMS FOR KSTP 1062 AND KPER 2 TO BUDGET FILE TERMS FROM KSTP 1 AND KPER 2

 FMI SETTING HEAD FOR KSTP 1062 AND KPER 2 TO BINARY FILE HEADS FROM KSTP 1 AND KPER 2

 SFR-1 SETTING BUDGET TERMS FOR KSTP 1062 AND KPER 2 TO BUDGET FILE TERMS FROM KSTP 1 AND KPER 2

end timestep


start timestep kper="2" kstp="1063" mode="normal"


 FMI SETTING BUDGET TERMS FOR KSTP 1063 AND KPER 2 TO BUDGET FILE TERMS FROM KSTP 1 AND KPER 2

 FMI SETTING HEAD FOR KSTP 1063 AND KPER 2 TO BINARY FILE HEADS FROM KSTP 1 AND KPER 2

 SFR-1 SETTING BUDGET TERMS FOR KSTP 1063 AND KPER 2 TO BUDGET FILE TERMS FROM KSTP 1 AND KPER 2

end timestep


start timestep kper="2" kstp="1064" mode="normal"


 FMI SETTING BUDGET TERMS FOR KSTP 1064 AND KPER 2 TO BUDGET FILE TERMS FROM KSTP 1 AND KPER 2

 FMI SETTING HEAD FOR KSTP 1064 AND KPER 2 TO BINARY FILE HEADS FROM KSTP 1 AND KPER 2

 SFR-1 SETTING BUDGET TERMS FOR KSTP 1064 AND KPER 2 TO BUDGET FILE TERMS FROM KSTP 1 AND KPER 2

end timestep


start timestep kper="2" kstp="1065" mode="normal"


 FMI SETTING BUDGET TERMS FOR KSTP 1065 AND KPER 2 TO BUDGET FILE TERMS FROM KSTP 1 AND KPER 2

 FMI SETTING HEAD FOR KSTP 1065 AND KPER 2 TO BINARY FILE HEADS FROM KSTP 1 AND KPER 2

 SFR-1 SETTING BUDGET TERMS FOR KSTP 1065 AND KPER 2 TO BUDGET FILE TERMS FROM KSTP 1 AND KPER 2

end timestep


start timestep kper="2" kstp="1066" mode="normal"


 FMI SETTING BUDGET TERMS FOR KSTP 1066 AND KPER 2 TO BUDGET FILE TERMS FROM KSTP 1 AND KPER 2

 FMI SETTING HEAD FOR KSTP 1066 AND KPER 2 TO BINARY FILE HEADS FROM KSTP 1 AND KPER 2

 SFR-1 SETTING BUDGET TERMS FOR KSTP 1066 AND KPER 2 TO BUDGET FILE TERMS FROM KSTP 1 AND KPER 2

end timestep


start timestep kper="2" kstp="1067" mode="normal"


 FMI SETTING BUDGET TERMS FOR KSTP 1067 AND KPER 2 TO BUDGET FILE TERMS FROM KSTP 1 AND KPER 2

 FMI SETTING HEAD FOR KSTP 1067 AND KPER 2 TO BINARY FILE HEADS FROM KSTP 1 AND KPER 2

 SFR-1 SETTING BUDGET TERMS FOR KSTP 1067 AND KPER 2 TO BUDGET FILE TERMS FROM KSTP 1 AND KPER 2

end timestep


start timestep kper="2" kstp="1068" mode="normal"


 FMI SETTING BUDGET TERMS FOR KSTP 1068 AND KPER 2 TO BUDGET FILE TERMS FROM KSTP 1 AND KPER 2

 FMI SETTING HEAD FOR KSTP 1068 AND KPER 2 TO BINARY FILE HEADS FROM KSTP 1 AND KPER 2

 SFR-1 SETTING BUDGET TERMS FOR KSTP 1068 AND KPER 2 TO BUDGET FILE TERMS FROM KSTP 1 AND KPER 2

end timestep


start timestep kper="2" kstp="1069" mode="normal"


 FMI SETTING BUDGET TERMS FOR KSTP 1069 AND KPER 2 TO BUDGET FILE TERMS FROM KSTP 1 AND KPER 2

 FMI SETTING HEAD FOR KSTP 1069 AND KPER 2 TO BINARY FILE HEADS FROM KSTP 1 AND KPER 2

 SFR-1 SETTING BUDGET TERMS FOR KSTP 1069 AND KPER 2 TO BUDGET FILE TERMS FROM KSTP 1 AND KPER 2

end timestep


start timestep kper="2" kstp="1070" mode="normal"


 FMI SETTING BUDGET TERMS FOR KSTP 1070 AND KPER 2 TO BUDGET FILE TERMS FROM KSTP 1 AND KPER 2

 FMI SETTING HEAD FOR KSTP 1070 AND KPER 2 TO BINARY FILE HEADS FROM KSTP 1 AND KPER 2

 SFR-1 SETTING BUDGET TERMS FOR KSTP 1070 AND KPER 2 TO BUDGET FILE TERMS FROM KSTP 1 AND KPER 2

 CONCENTRATION WILL BE SAVED ON UNIT 1024 AT END OF TIME STEP 1070, STRESS PERIOD    2

end timestep


start timestep kper="2" kstp="1071" mode="normal"


 FMI SETTING BUDGET TERMS FOR KSTP 1071 AND KPER 2 TO BUDGET FILE TERMS FROM KSTP 1 AND KPER 2

 FMI SETTING HEAD FOR KSTP 1071 AND KPER 2 TO BINARY FILE HEADS FROM KSTP 1 AND KPER 2

 SFR-1 SETTING BUDGET TERMS FOR KSTP 1071 AND KPER 2 TO BUDGET FILE TERMS FROM KSTP 1 AND KPER 2

end timestep


start timestep kper="2" kstp="1072" mode="normal"


 FMI SETTING BUDGET TERMS FOR KSTP 1072 AND KPER 2 TO BUDGET FILE TERMS FROM KSTP 1 AND KPER 2

 FMI SETTING HEAD FOR KSTP 1072 AND KPER 2 TO BINARY FILE HEADS FROM KSTP 1 AND KPER 2

 SFR-1 SETTING BUDGET TERMS FOR KSTP 1072 AND KPER 2 TO BUDGET FILE TERMS FROM KSTP 1 AND KPER 2

end timestep


start timestep kper="2" kstp="1073" mode="normal"


 FMI SETTING BUDGET TERMS FOR KSTP 1073 AND KPER 2 TO BUDGET FILE TERMS FROM KSTP 1 AND KPER 2

 FMI SETTING HEAD FOR KSTP 1073 AND KPER 2 TO BINARY FILE HEADS FROM KSTP 1 AND KPER 2

 SFR-1 SETTING BUDGET TERMS FOR KSTP 1073 AND KPER 2 TO BUDGET FILE TERMS FROM KSTP 1 AND KPER 2

end timestep


start timestep kper="2" kstp="1074" mode="normal"


 FMI SETTING BUDGET TERMS FOR KSTP 1074 AND KPER 2 TO BUDGET FILE TERMS FROM KSTP 1 AND KPER 2

 FMI SETTING HEAD FOR KSTP 1074 AND KPER 2 TO BINARY FILE HEADS FROM KSTP 1 AND KPER 2

 SFR-1 SETTING BUDGET TERMS FOR KSTP 1074 AND KPER 2 TO BUDGET FILE TERMS FROM KSTP 1 AND KPER 2

end timestep


start timestep kper="2" kstp="1075" mode="normal"


 FMI SETTING BUDGET TERMS FOR KSTP 1075 AND KPER 2 TO BUDGET FILE TERMS FROM KSTP 1 AND KPER 2

 FMI SETTING HEAD FOR KSTP 1075 AND KPER 2 TO BINARY FILE HEADS FROM KSTP 1 AND KPER 2

 SFR-1 SETTING BUDGET TERMS FOR KSTP 1075 AND KPER 2 TO BUDGET FILE TERMS FROM KSTP 1 AND KPER 2

end timestep


start timestep kper="2" kstp="1076" mode="normal"


 FMI SETTING BUDGET TERMS FOR KSTP 1076 AND KPER 2 TO BUDGET FILE TERMS FROM KSTP 1 AND KPER 2

 FMI SETTING HEAD FOR KSTP 1076 AND KPER 2 TO BINARY FILE HEADS FROM KSTP 1 AND KPER 2

 SFR-1 SETTING BUDGET TERMS FOR KSTP 1076 AND KPER 2 TO BUDGET FILE TERMS FROM KSTP 1 AND KPER 2

end timestep


start timestep kper="2" kstp="1077" mode="normal"


 FMI SETTING BUDGET TERMS FOR KSTP 1077 AND KPER 2 TO BUDGET FILE TERMS FROM KSTP 1 AND KPER 2

 FMI SETTING HEAD FOR KSTP 1077 AND KPER 2 TO BINARY FILE HEADS FROM KSTP 1 AND KPER 2

 SFR-1 SETTING BUDGET TERMS FOR KSTP 1077 AND KPER 2 TO BUDGET FILE TERMS FROM KSTP 1 AND KPER 2

end timestep


start timestep kper="2" kstp="1078" mode="normal"


 FMI SETTING BUDGET TERMS FOR KSTP 1078 AND KPER 2 TO BUDGET FILE TERMS FROM KSTP 1 AND KPER 2

 FMI SETTING HEAD FOR KSTP 1078 AND KPER 2 TO BINARY FILE HEADS FROM KSTP 1 AND KPER 2

 SFR-1 SETTING BUDGET TERMS FOR KSTP 1078 AND KPER 2 TO BUDGET FILE TERMS FROM KSTP 1 AND KPER 2

end timestep


start timestep kper="2" kstp="1079" mode="normal"


 FMI SETTING BUDGET TERMS FOR KSTP 1079 AND KPER 2 TO BUDGET FILE TERMS FROM KSTP 1 AND KPER 2

 FMI SETTING HEAD FOR KSTP 1079 AND KPER 2 TO BINARY FILE HEADS FROM KSTP 1 AND KPER 2

 SFR-1 SETTING BUDGET TERMS FOR KSTP 1079 AND KPER 2 TO BUDGET FILE TERMS FROM KSTP 1 AND KPER 2

end timestep


start timestep kper="2" kstp="1080" mode="normal"


 FMI SETTING BUDGET TERMS FOR KSTP 1080 AND KPER 2 TO BUDGET FILE TERMS FROM KSTP 1 AND KPER 2

 FMI SETTING HEAD FOR KSTP 1080 AND KPER 2 TO BINARY FILE HEADS FROM KSTP 1 AND KPER 2

 SFR-1 SETTING BUDGET TERMS FOR KSTP 1080 AND KPER 2 TO BUDGET FILE TERMS FROM KSTP 1 AND KPER 2

 CONCENTRATION WILL BE SAVED ON UNIT 1024 AT END OF TIME STEP 1080, STRESS PERIOD    2

end timestep


start timestep kper="2" kstp="1081" mode="normal"


 FMI SETTING BUDGET TERMS FOR KSTP 1081 AND KPER 2 TO BUDGET FILE TERMS FROM KSTP 1 AND KPER 2

 FMI SETTING HEAD FOR KSTP 1081 AND KPER 2 TO BINARY FILE HEADS FROM KSTP 1 AND KPER 2

 SFR-1 SETTING BUDGET TERMS FOR KSTP 1081 AND KPER 2 TO BUDGET FILE TERMS FROM KSTP 1 AND KPER 2

end timestep


start timestep kper="2" kstp="1082" mode="normal"


 FMI SETTING BUDGET TERMS FOR KSTP 1082 AND KPER 2 TO BUDGET FILE TERMS FROM KSTP 1 AND KPER 2

 FMI SETTING HEAD FOR KSTP 1082 AND KPER 2 TO BINARY FILE HEADS FROM KSTP 1 AND KPER 2

 SFR-1 SETTING BUDGET TERMS FOR KSTP 1082 AND KPER 2 TO BUDGET FILE TERMS FROM KSTP 1 AND KPER 2

end timestep


start timestep kper="2" kstp="1083" mode="normal"


 FMI SETTING BUDGET TERMS FOR KSTP 1083 AND KPER 2 TO BUDGET FILE TERMS FROM KSTP 1 AND KPER 2

 FMI SETTING HEAD FOR KSTP 1083 AND KPER 2 TO BINARY FILE HEADS FROM KSTP 1 AND KPER 2

 SFR-1 SETTING BUDGET TERMS FOR KSTP 1083 AND KPER 2 TO BUDGET FILE TERMS FROM KSTP 1 AND KPER 2

end timestep


start timestep kper="2" kstp="1084" mode="normal"


 FMI SETTING BUDGET TERMS FOR KSTP 1084 AND KPER 2 TO BUDGET FILE TERMS FROM KSTP 1 AND KPER 2

 FMI SETTING HEAD FOR KSTP 1084 AND KPER 2 TO BINARY FILE HEADS FROM KSTP 1 AND KPER 2

 SFR-1 SETTING BUDGET TERMS FOR KSTP 1084 AND KPER 2 TO BUDGET FILE TERMS FROM KSTP 1 AND KPER 2

end timestep


start timestep kper="2" kstp="1085" mode="normal"


 FMI SETTING BUDGET TERMS FOR KSTP 1085 AND KPER 2 TO BUDGET FILE TERMS FROM KSTP 1 AND KPER 2

 FMI SETTING HEAD FOR KSTP 1085 AND KPER 2 TO BINARY FILE HEADS FROM KSTP 1 AND KPER 2

 SFR-1 SETTING BUDGET TERMS FOR KSTP 1085 AND KPER 2 TO BUDGET FILE TERMS FROM KSTP 1 AND KPER 2

end timestep


start timestep kper="2" kstp="1086" mode="normal"


 FMI SETTING BUDGET TERMS FOR KSTP 1086 AND KPER 2 TO BUDGET FILE TERMS FROM KSTP 1 AND KPER 2

 FMI SETTING HEAD FOR KSTP 1086 AND KPER 2 TO BINARY FILE HEADS FROM KSTP 1 AND KPER 2

 SFR-1 SETTING BUDGET TERMS FOR KSTP 1086 AND KPER 2 TO BUDGET FILE TERMS FROM KSTP 1 AND KPER 2

end timestep


start timestep kper="2" kstp="1087" mode="normal"


 FMI SETTING BUDGET TERMS FOR KSTP 1087 AND KPER 2 TO BUDGET FILE TERMS FROM KSTP 1 AND KPER 2

 FMI SETTING HEAD FOR KSTP 1087 AND KPER 2 TO BINARY FILE HEADS FROM KSTP 1 AND KPER 2

 SFR-1 SETTING BUDGET TERMS FOR KSTP 1087 AND KPER 2 TO BUDGET FILE TERMS FROM KSTP 1 AND KPER 2

end timestep


start timestep kper="2" kstp="1088" mode="normal"


 FMI SETTING BUDGET TERMS FOR KSTP 1088 AND KPER 2 TO BUDGET FILE TERMS FROM KSTP 1 AND KPER 2

 FMI SETTING HEAD FOR KSTP 1088 AND KPER 2 TO BINARY FILE HEADS FROM KSTP 1 AND KPER 2

 SFR-1 SETTING BUDGET TERMS FOR KSTP 1088 AND KPER 2 TO BUDGET FILE TERMS FROM KSTP 1 AND KPER 2

end timestep


start timestep kper="2" kstp="1089" mode="normal"


 FMI SETTING BUDGET TERMS FOR KSTP 1089 AND KPER 2 TO BUDGET FILE TERMS FROM KSTP 1 AND KPER 2

 FMI SETTING HEAD FOR KSTP 1089 AND KPER 2 TO BINARY FILE HEADS FROM KSTP 1 AND KPER 2

 SFR-1 SETTING BUDGET TERMS FOR KSTP 1089 AND KPER 2 TO BUDGET FILE TERMS FROM KSTP 1 AND KPER 2

end timestep


start timestep kper="2" kstp="1090" mode="normal"


 FMI SETTING BUDGET TERMS FOR KSTP 1090 AND KPER 2 TO BUDGET FILE TERMS FROM KSTP 1 AND KPER 2

 FMI SETTING HEAD FOR KSTP 1090 AND KPER 2 TO BINARY FILE HEADS FROM KSTP 1 AND KPER 2

 SFR-1 SETTING BUDGET TERMS FOR KSTP 1090 AND KPER 2 TO BUDGET FILE TERMS FROM KSTP 1 AND KPER 2

 CONCENTRATION WILL BE SAVED ON UNIT 1024 AT END OF TIME STEP 1090, STRESS PERIOD    2

end timestep


start timestep kper="2" kstp="1091" mode="normal"


 FMI SETTING BUDGET TERMS FOR KSTP 1091 AND KPER 2 TO BUDGET FILE TERMS FROM KSTP 1 AND KPER 2

 FMI SETTING HEAD FOR KSTP 1091 AND KPER 2 TO BINARY FILE HEADS FROM KSTP 1 AND KPER 2

 SFR-1 SETTING BUDGET TERMS FOR KSTP 1091 AND KPER 2 TO BUDGET FILE TERMS FROM KSTP 1 AND KPER 2

end timestep


start timestep kper="2" kstp="1092" mode="normal"


 FMI SETTING BUDGET TERMS FOR KSTP 1092 AND KPER 2 TO BUDGET FILE TERMS FROM KSTP 1 AND KPER 2

 FMI SETTING HEAD FOR KSTP 1092 AND KPER 2 TO BINARY FILE HEADS FROM KSTP 1 AND KPER 2

 SFR-1 SETTING BUDGET TERMS FOR KSTP 1092 AND KPER 2 TO BUDGET FILE TERMS FROM KSTP 1 AND KPER 2

end timestep


start timestep kper="2" kstp="1093" mode="normal"


 FMI SETTING BUDGET TERMS FOR KSTP 1093 AND KPER 2 TO BUDGET FILE TERMS FROM KSTP 1 AND KPER 2

 FMI SETTING HEAD FOR KSTP 1093 AND KPER 2 TO BINARY FILE HEADS FROM KSTP 1 AND KPER 2

 SFR-1 SETTING BUDGET TERMS FOR KSTP 1093 AND KPER 2 TO BUDGET FILE TERMS FROM KSTP 1 AND KPER 2

end timestep


start timestep kper="2" kstp="1094" mode="normal"


 FMI SETTING BUDGET TERMS FOR KSTP 1094 AND KPER 2 TO BUDGET FILE TERMS FROM KSTP 1 AND KPER 2

 FMI SETTING HEAD FOR KSTP 1094 AND KPER 2 TO BINARY FILE HEADS FROM KSTP 1 AND KPER 2

 SFR-1 SETTING BUDGET TERMS FOR KSTP 1094 AND KPER 2 TO BUDGET FILE TERMS FROM KSTP 1 AND KPER 2

end timestep


start timestep kper="2" kstp="1095" mode="normal"


 FMI SETTING BUDGET TERMS FOR KSTP 1095 AND KPER 2 TO BUDGET FILE TERMS FROM KSTP 1 AND KPER 2

 FMI SETTING HEAD FOR KSTP 1095 AND KPER 2 TO BINARY FILE HEADS FROM KSTP 1 AND KPER 2

 SFR-1 SETTING BUDGET TERMS FOR KSTP 1095 AND KPER 2 TO BUDGET FILE TERMS FROM KSTP 1 AND KPER 2

end timestep


start timestep kper="2" kstp="1096" mode="normal"


 FMI SETTING BUDGET TERMS FOR KSTP 1096 AND KPER 2 TO BUDGET FILE TERMS FROM KSTP 1 AND KPER 2

 FMI SETTING HEAD FOR KSTP 1096 AND KPER 2 TO BINARY FILE HEADS FROM KSTP 1 AND KPER 2

 SFR-1 SETTING BUDGET TERMS FOR KSTP 1096 AND KPER 2 TO BUDGET FILE TERMS FROM KSTP 1 AND KPER 2

end timestep


start timestep kper="2" kstp="1097" mode="normal"


 FMI SETTING BUDGET TERMS FOR KSTP 1097 AND KPER 2 TO BUDGET FILE TERMS FROM KSTP 1 AND KPER 2

 FMI SETTING HEAD FOR KSTP 1097 AND KPER 2 TO BINARY FILE HEADS FROM KSTP 1 AND KPER 2

 SFR-1 SETTING BUDGET TERMS FOR KSTP 1097 AND KPER 2 TO BUDGET FILE TERMS FROM KSTP 1 AND KPER 2

end timestep


start timestep kper="2" kstp="1098" mode="normal"


 FMI SETTING BUDGET TERMS FOR KSTP 1098 AND KPER 2 TO BUDGET FILE TERMS FROM KSTP 1 AND KPER 2

 FMI SETTING HEAD FOR KSTP 1098 AND KPER 2 TO BINARY FILE HEADS FROM KSTP 1 AND KPER 2

 SFR-1 SETTING BUDGET TERMS FOR KSTP 1098 AND KPER 2 TO BUDGET FILE TERMS FROM KSTP 1 AND KPER 2

end timestep


start timestep kper="2" kstp="1099" mode="normal"


 FMI SETTING BUDGET TERMS FOR KSTP 1099 AND KPER 2 TO BUDGET FILE TERMS FROM KSTP 1 AND KPER 2

 FMI SETTING HEAD FOR KSTP 1099 AND KPER 2 TO BINARY FILE HEADS FROM KSTP 1 AND KPER 2

 SFR-1 SETTING BUDGET TERMS FOR KSTP 1099 AND KPER 2 TO BUDGET FILE TERMS FROM KSTP 1 AND KPER 2

end timestep


start timestep kper="2" kstp="1100" mode="normal"


 FMI SETTING BUDGET TERMS FOR KSTP 1100 AND KPER 2 TO BUDGET FILE TERMS FROM KSTP 1 AND KPER 2

 FMI SETTING HEAD FOR KSTP 1100 AND KPER 2 TO BINARY FILE HEADS FROM KSTP 1 AND KPER 2

 SFR-1 SETTING BUDGET TERMS FOR KSTP 1100 AND KPER 2 TO BUDGET FILE TERMS FROM KSTP 1 AND KPER 2

 CONCENTRATION WILL BE SAVED ON UNIT 1024 AT END OF TIME STEP 1100, STRESS PERIOD    2

end timestep


start timestep kper="2" kstp="1101" mode="normal"


 FMI SETTING BUDGET TERMS FOR KSTP 1101 AND KPER 2 TO BUDGET FILE TERMS FROM KSTP 1 AND KPER 2

 FMI SETTING HEAD FOR KSTP 1101 AND KPER 2 TO BINARY FILE HEADS FROM KSTP 1 AND KPER 2

 SFR-1 SETTING BUDGET TERMS FOR KSTP 1101 AND KPER 2 TO BUDGET FILE TERMS FROM KSTP 1 AND KPER 2

end timestep


start timestep kper="2" kstp="1102" mode="normal"


 FMI SETTING BUDGET TERMS FOR KSTP 1102 AND KPER 2 TO BUDGET FILE TERMS FROM KSTP 1 AND KPER 2

 FMI SETTING HEAD FOR KSTP 1102 AND KPER 2 TO BINARY FILE HEADS FROM KSTP 1 AND KPER 2

 SFR-1 SETTING BUDGET TERMS FOR KSTP 1102 AND KPER 2 TO BUDGET FILE TERMS FROM KSTP 1 AND KPER 2

end timestep


start timestep kper="2" kstp="1103" mode="normal"


 FMI SETTING BUDGET TERMS FOR KSTP 1103 AND KPER 2 TO BUDGET FILE TERMS FROM KSTP 1 AND KPER 2

 FMI SETTING HEAD FOR KSTP 1103 AND KPER 2 TO BINARY FILE HEADS FROM KSTP 1 AND KPER 2

 SFR-1 SETTING BUDGET TERMS FOR KSTP 1103 AND KPER 2 TO BUDGET FILE TERMS FROM KSTP 1 AND KPER 2

end timestep


start timestep kper="2" kstp="1104" mode="normal"


 FMI SETTING BUDGET TERMS FOR KSTP 1104 AND KPER 2 TO BUDGET FILE TERMS FROM KSTP 1 AND KPER 2

 FMI SETTING HEAD FOR KSTP 1104 AND KPER 2 TO BINARY FILE HEADS FROM KSTP 1 AND KPER 2

 SFR-1 SETTING BUDGET TERMS FOR KSTP 1104 AND KPER 2 TO BUDGET FILE TERMS FROM KSTP 1 AND KPER 2

end timestep


start timestep kper="2" kstp="1105" mode="normal"


 FMI SETTING BUDGET TERMS FOR KSTP 1105 AND KPER 2 TO BUDGET FILE TERMS FROM KSTP 1 AND KPER 2

 FMI SETTING HEAD FOR KSTP 1105 AND KPER 2 TO BINARY FILE HEADS FROM KSTP 1 AND KPER 2

 SFR-1 SETTING BUDGET TERMS FOR KSTP 1105 AND KPER 2 TO BUDGET FILE TERMS FROM KSTP 1 AND KPER 2

end timestep


start timestep kper="2" kstp="1106" mode="normal"


 FMI SETTING BUDGET TERMS FOR KSTP 1106 AND KPER 2 TO BUDGET FILE TERMS FROM KSTP 1 AND KPER 2

 FMI SETTING HEAD FOR KSTP 1106 AND KPER 2 TO BINARY FILE HEADS FROM KSTP 1 AND KPER 2

 SFR-1 SETTING BUDGET TERMS FOR KSTP 1106 AND KPER 2 TO BUDGET FILE TERMS FROM KSTP 1 AND KPER 2

end timestep


start timestep kper="2" kstp="1107" mode="normal"


 FMI SETTING BUDGET TERMS FOR KSTP 1107 AND KPER 2 TO BUDGET FILE TERMS FROM KSTP 1 AND KPER 2

 FMI SETTING HEAD FOR KSTP 1107 AND KPER 2 TO BINARY FILE HEADS FROM KSTP 1 AND KPER 2

 SFR-1 SETTING BUDGET TERMS FOR KSTP 1107 AND KPER 2 TO BUDGET FILE TERMS FROM KSTP 1 AND KPER 2

end timestep


start timestep kper="2" kstp="1108" mode="normal"


 FMI SETTING BUDGET TERMS FOR KSTP 1108 AND KPER 2 TO BUDGET FILE TERMS FROM KSTP 1 AND KPER 2

 FMI SETTING HEAD FOR KSTP 1108 AND KPER 2 TO BINARY FILE HEADS FROM KSTP 1 AND KPER 2

 SFR-1 SETTING BUDGET TERMS FOR KSTP 1108 AND KPER 2 TO BUDGET FILE TERMS FROM KSTP 1 AND KPER 2

end timestep


start timestep kper="2" kstp="1109" mode="normal"


 FMI SETTING BUDGET TERMS FOR KSTP 1109 AND KPER 2 TO BUDGET FILE TERMS FROM KSTP 1 AND KPER 2

 FMI SETTING HEAD FOR KSTP 1109 AND KPER 2 TO BINARY FILE HEADS FROM KSTP 1 AND KPER 2

 SFR-1 SETTING BUDGET TERMS FOR KSTP 1109 AND KPER 2 TO BUDGET FILE TERMS FROM KSTP 1 AND KPER 2

end timestep


start timestep kper="2" kstp="1110" mode="normal"


 FMI SETTING BUDGET TERMS FOR KSTP 1110 AND KPER 2 TO BUDGET FILE TERMS FROM KSTP 1 AND KPER 2

 FMI SETTING HEAD FOR KSTP 1110 AND KPER 2 TO BINARY FILE HEADS FROM KSTP 1 AND KPER 2

 SFR-1 SETTING BUDGET TERMS FOR KSTP 1110 AND KPER 2 TO BUDGET FILE TERMS FROM KSTP 1 AND KPER 2

 CONCENTRATION WILL BE SAVED ON UNIT 1024 AT END OF TIME STEP 1110, STRESS PERIOD    2

end timestep


start timestep kper="2" kstp="1111" mode="normal"


 FMI SETTING BUDGET TERMS FOR KSTP 1111 AND KPER 2 TO BUDGET FILE TERMS FROM KSTP 1 AND KPER 2

 FMI SETTING HEAD FOR KSTP 1111 AND KPER 2 TO BINARY FILE HEADS FROM KSTP 1 AND KPER 2

 SFR-1 SETTING BUDGET TERMS FOR KSTP 1111 AND KPER 2 TO BUDGET FILE TERMS FROM KSTP 1 AND KPER 2

end timestep


start timestep kper="2" kstp="1112" mode="normal"


 FMI SETTING BUDGET TERMS FOR KSTP 1112 AND KPER 2 TO BUDGET FILE TERMS FROM KSTP 1 AND KPER 2

 FMI SETTING HEAD FOR KSTP 1112 AND KPER 2 TO BINARY FILE HEADS FROM KSTP 1 AND KPER 2

 SFR-1 SETTING BUDGET TERMS FOR KSTP 1112 AND KPER 2 TO BUDGET FILE TERMS FROM KSTP 1 AND KPER 2

end timestep


start timestep kper="2" kstp="1113" mode="normal"


 FMI SETTING BUDGET TERMS FOR KSTP 1113 AND KPER 2 TO BUDGET FILE TERMS FROM KSTP 1 AND KPER 2

 FMI SETTING HEAD FOR KSTP 1113 AND KPER 2 TO BINARY FILE HEADS FROM KSTP 1 AND KPER 2

 SFR-1 SETTING BUDGET TERMS FOR KSTP 1113 AND KPER 2 TO BUDGET FILE TERMS FROM KSTP 1 AND KPER 2

end timestep


start timestep kper="2" kstp="1114" mode="normal"


 FMI SETTING BUDGET TERMS FOR KSTP 1114 AND KPER 2 TO BUDGET FILE TERMS FROM KSTP 1 AND KPER 2

 FMI SETTING HEAD FOR KSTP 1114 AND KPER 2 TO BINARY FILE HEADS FROM KSTP 1 AND KPER 2

 SFR-1 SETTING BUDGET TERMS FOR KSTP 1114 AND KPER 2 TO BUDGET FILE TERMS FROM KSTP 1 AND KPER 2

end timestep


start timestep kper="2" kstp="1115" mode="normal"


 FMI SETTING BUDGET TERMS FOR KSTP 1115 AND KPER 2 TO BUDGET FILE TERMS FROM KSTP 1 AND KPER 2

 FMI SETTING HEAD FOR KSTP 1115 AND KPER 2 TO BINARY FILE HEADS FROM KSTP 1 AND KPER 2

 SFR-1 SETTING BUDGET TERMS FOR KSTP 1115 AND KPER 2 TO BUDGET FILE TERMS FROM KSTP 1 AND KPER 2

end timestep


start timestep kper="2" kstp="1116" mode="normal"


 FMI SETTING BUDGET TERMS FOR KSTP 1116 AND KPER 2 TO BUDGET FILE TERMS FROM KSTP 1 AND KPER 2

 FMI SETTING HEAD FOR KSTP 1116 AND KPER 2 TO BINARY FILE HEADS FROM KSTP 1 AND KPER 2

 SFR-1 SETTING BUDGET TERMS FOR KSTP 1116 AND KPER 2 TO BUDGET FILE TERMS FROM KSTP 1 AND KPER 2

end timestep


start timestep kper="2" kstp="1117" mode="normal"


 FMI SETTING BUDGET TERMS FOR KSTP 1117 AND KPER 2 TO BUDGET FILE TERMS FROM KSTP 1 AND KPER 2

 FMI SETTING HEAD FOR KSTP 1117 AND KPER 2 TO BINARY FILE HEADS FROM KSTP 1 AND KPER 2

 SFR-1 SETTING BUDGET TERMS FOR KSTP 1117 AND KPER 2 TO BUDGET FILE TERMS FROM KSTP 1 AND KPER 2

end timestep


start timestep kper="2" kstp="1118" mode="normal"


 FMI SETTING BUDGET TERMS FOR KSTP 1118 AND KPER 2 TO BUDGET FILE TERMS FROM KSTP 1 AND KPER 2

 FMI SETTING HEAD FOR KSTP 1118 AND KPER 2 TO BINARY FILE HEADS FROM KSTP 1 AND KPER 2

 SFR-1 SETTING BUDGET TERMS FOR KSTP 1118 AND KPER 2 TO BUDGET FILE TERMS FROM KSTP 1 AND KPER 2

end timestep


start timestep kper="2" kstp="1119" mode="normal"


 FMI SETTING BUDGET TERMS FOR KSTP 1119 AND KPER 2 TO BUDGET FILE TERMS FROM KSTP 1 AND KPER 2

 FMI SETTING HEAD FOR KSTP 1119 AND KPER 2 TO BINARY FILE HEADS FROM KSTP 1 AND KPER 2

 SFR-1 SETTING BUDGET TERMS FOR KSTP 1119 AND KPER 2 TO BUDGET FILE TERMS FROM KSTP 1 AND KPER 2

end timestep


start timestep kper="2" kstp="1120" mode="normal"


 FMI SETTING BUDGET TERMS FOR KSTP 1120 AND KPER 2 TO BUDGET FILE TERMS FROM KSTP 1 AND KPER 2

 FMI SETTING HEAD FOR KSTP 1120 AND KPER 2 TO BINARY FILE HEADS FROM KSTP 1 AND KPER 2

 SFR-1 SETTING BUDGET TERMS FOR KSTP 1120 AND KPER 2 TO BUDGET FILE TERMS FROM KSTP 1 AND KPER 2

 CONCENTRATION WILL BE SAVED ON UNIT 1024 AT END OF TIME STEP 1120, STRESS PERIOD    2

end timestep


start timestep kper="2" kstp="1121" mode="normal"


 FMI SETTING BUDGET TERMS FOR KSTP 1121 AND KPER 2 TO BUDGET FILE TERMS FROM KSTP 1 AND KPER 2

 FMI SETTING HEAD FOR KSTP 1121 AND KPER 2 TO BINARY FILE HEADS FROM KSTP 1 AND KPER 2

 SFR-1 SETTING BUDGET TERMS FOR KSTP 1121 AND KPER 2 TO BUDGET FILE TERMS FROM KSTP 1 AND KPER 2

end timestep


start timestep kper="2" kstp="1122" mode="normal"


 FMI SETTING BUDGET TERMS FOR KSTP 1122 AND KPER 2 TO BUDGET FILE TERMS FROM KSTP 1 AND KPER 2

 FMI SETTING HEAD FOR KSTP 1122 AND KPER 2 TO BINARY FILE HEADS FROM KSTP 1 AND KPER 2

 SFR-1 SETTING BUDGET TERMS FOR KSTP 1122 AND KPER 2 TO BUDGET FILE TERMS FROM KSTP 1 AND KPER 2

end timestep


start timestep kper="2" kstp="1123" mode="normal"


 FMI SETTING BUDGET TERMS FOR KSTP 1123 AND KPER 2 TO BUDGET FILE TERMS FROM KSTP 1 AND KPER 2

 FMI SETTING HEAD FOR KSTP 1123 AND KPER 2 TO BINARY FILE HEADS FROM KSTP 1 AND KPER 2

 SFR-1 SETTING BUDGET TERMS FOR KSTP 1123 AND KPER 2 TO BUDGET FILE TERMS FROM KSTP 1 AND KPER 2

end timestep


start timestep kper="2" kstp="1124" mode="normal"


 FMI SETTING BUDGET TERMS FOR KSTP 1124 AND KPER 2 TO BUDGET FILE TERMS FROM KSTP 1 AND KPER 2

 FMI SETTING HEAD FOR KSTP 1124 AND KPER 2 TO BINARY FILE HEADS FROM KSTP 1 AND KPER 2

 SFR-1 SETTING BUDGET TERMS FOR KSTP 1124 AND KPER 2 TO BUDGET FILE TERMS FROM KSTP 1 AND KPER 2

end timestep


start timestep kper="2" kstp="1125" mode="normal"


 FMI SETTING BUDGET TERMS FOR KSTP 1125 AND KPER 2 TO BUDGET FILE TERMS FROM KSTP 1 AND KPER 2

 FMI SETTING HEAD FOR KSTP 1125 AND KPER 2 TO BINARY FILE HEADS FROM KSTP 1 AND KPER 2

 SFR-1 SETTING BUDGET TERMS FOR KSTP 1125 AND KPER 2 TO BUDGET FILE TERMS FROM KSTP 1 AND KPER 2

end timestep


start timestep kper="2" kstp="1126" mode="normal"


 FMI SETTING BUDGET TERMS FOR KSTP 1126 AND KPER 2 TO BUDGET FILE TERMS FROM KSTP 1 AND KPER 2

 FMI SETTING HEAD FOR KSTP 1126 AND KPER 2 TO BINARY FILE HEADS FROM KSTP 1 AND KPER 2

 SFR-1 SETTING BUDGET TERMS FOR KSTP 1126 AND KPER 2 TO BUDGET FILE TERMS FROM KSTP 1 AND KPER 2

end timestep


start timestep kper="2" kstp="1127" mode="normal"


 FMI SETTING BUDGET TERMS FOR KSTP 1127 AND KPER 2 TO BUDGET FILE TERMS FROM KSTP 1 AND KPER 2

 FMI SETTING HEAD FOR KSTP 1127 AND KPER 2 TO BINARY FILE HEADS FROM KSTP 1 AND KPER 2

 SFR-1 SETTING BUDGET TERMS FOR KSTP 1127 AND KPER 2 TO BUDGET FILE TERMS FROM KSTP 1 AND KPER 2

end timestep


start timestep kper="2" kstp="1128" mode="normal"


 FMI SETTING BUDGET TERMS FOR KSTP 1128 AND KPER 2 TO BUDGET FILE TERMS FROM KSTP 1 AND KPER 2

 FMI SETTING HEAD FOR KSTP 1128 AND KPER 2 TO BINARY FILE HEADS FROM KSTP 1 AND KPER 2

 SFR-1 SETTING BUDGET TERMS FOR KSTP 1128 AND KPER 2 TO BUDGET FILE TERMS FROM KSTP 1 AND KPER 2

end timestep


start timestep kper="2" kstp="1129" mode="normal"


 FMI SETTING BUDGET TERMS FOR KSTP 1129 AND KPER 2 TO BUDGET FILE TERMS FROM KSTP 1 AND KPER 2

 FMI SETTING HEAD FOR KSTP 1129 AND KPER 2 TO BINARY FILE HEADS FROM KSTP 1 AND KPER 2

 SFR-1 SETTING BUDGET TERMS FOR KSTP 1129 AND KPER 2 TO BUDGET FILE TERMS FROM KSTP 1 AND KPER 2

end timestep


start timestep kper="2" kstp="1130" mode="normal"


 FMI SETTING BUDGET TERMS FOR KSTP 1130 AND KPER 2 TO BUDGET FILE TERMS FROM KSTP 1 AND KPER 2

 FMI SETTING HEAD FOR KSTP 1130 AND KPER 2 TO BINARY FILE HEADS FROM KSTP 1 AND KPER 2

 SFR-1 SETTING BUDGET TERMS FOR KSTP 1130 AND KPER 2 TO BUDGET FILE TERMS FROM KSTP 1 AND KPER 2

 CONCENTRATION WILL BE SAVED ON UNIT 1024 AT END OF TIME STEP 1130, STRESS PERIOD    2

end timestep


start timestep kper="2" kstp="1131" mode="normal"


 FMI SETTING BUDGET TERMS FOR KSTP 1131 AND KPER 2 TO BUDGET FILE TERMS FROM KSTP 1 AND KPER 2

 FMI SETTING HEAD FOR KSTP 1131 AND KPER 2 TO BINARY FILE HEADS FROM KSTP 1 AND KPER 2

 SFR-1 SETTING BUDGET TERMS FOR KSTP 1131 AND KPER 2 TO BUDGET FILE TERMS FROM KSTP 1 AND KPER 2

end timestep


start timestep kper="2" kstp="1132" mode="normal"


 FMI SETTING BUDGET TERMS FOR KSTP 1132 AND KPER 2 TO BUDGET FILE TERMS FROM KSTP 1 AND KPER 2

 FMI SETTING HEAD FOR KSTP 1132 AND KPER 2 TO BINARY FILE HEADS FROM KSTP 1 AND KPER 2

 SFR-1 SETTING BUDGET TERMS FOR KSTP 1132 AND KPER 2 TO BUDGET FILE TERMS FROM KSTP 1 AND KPER 2

end timestep


start timestep kper="2" kstp="1133" mode="normal"


 FMI SETTING BUDGET TERMS FOR KSTP 1133 AND KPER 2 TO BUDGET FILE TERMS FROM KSTP 1 AND KPER 2

 FMI SETTING HEAD FOR KSTP 1133 AND KPER 2 TO BINARY FILE HEADS FROM KSTP 1 AND KPER 2

 SFR-1 SETTING BUDGET TERMS FOR KSTP 1133 AND KPER 2 TO BUDGET FILE TERMS FROM KSTP 1 AND KPER 2

end timestep


start timestep kper="2" kstp="1134" mode="normal"


 FMI SETTING BUDGET TERMS FOR KSTP 1134 AND KPER 2 TO BUDGET FILE TERMS FROM KSTP 1 AND KPER 2

 FMI SETTING HEAD FOR KSTP 1134 AND KPER 2 TO BINARY FILE HEADS FROM KSTP 1 AND KPER 2

 SFR-1 SETTING BUDGET TERMS FOR KSTP 1134 AND KPER 2 TO BUDGET FILE TERMS FROM KSTP 1 AND KPER 2

end timestep


start timestep kper="2" kstp="1135" mode="normal"


 FMI SETTING BUDGET TERMS FOR KSTP 1135 AND KPER 2 TO BUDGET FILE TERMS FROM KSTP 1 AND KPER 2

 FMI SETTING HEAD FOR KSTP 1135 AND KPER 2 TO BINARY FILE HEADS FROM KSTP 1 AND KPER 2

 SFR-1 SETTING BUDGET TERMS FOR KSTP 1135 AND KPER 2 TO BUDGET FILE TERMS FROM KSTP 1 AND KPER 2

end timestep


start timestep kper="2" kstp="1136" mode="normal"


 FMI SETTING BUDGET TERMS FOR KSTP 1136 AND KPER 2 TO BUDGET FILE TERMS FROM KSTP 1 AND KPER 2

 FMI SETTING HEAD FOR KSTP 1136 AND KPER 2 TO BINARY FILE HEADS FROM KSTP 1 AND KPER 2

 SFR-1 SETTING BUDGET TERMS FOR KSTP 1136 AND KPER 2 TO BUDGET FILE TERMS FROM KSTP 1 AND KPER 2

end timestep


start timestep kper="2" kstp="1137" mode="normal"


 FMI SETTING BUDGET TERMS FOR KSTP 1137 AND KPER 2 TO BUDGET FILE TERMS FROM KSTP 1 AND KPER 2

 FMI SETTING HEAD FOR KSTP 1137 AND KPER 2 TO BINARY FILE HEADS FROM KSTP 1 AND KPER 2

 SFR-1 SETTING BUDGET TERMS FOR KSTP 1137 AND KPER 2 TO BUDGET FILE TERMS FROM KSTP 1 AND KPER 2

end timestep


start timestep kper="2" kstp="1138" mode="normal"


 FMI SETTING BUDGET TERMS FOR KSTP 1138 AND KPER 2 TO BUDGET FILE TERMS FROM KSTP 1 AND KPER 2

 FMI SETTING HEAD FOR KSTP 1138 AND KPER 2 TO BINARY FILE HEADS FROM KSTP 1 AND KPER 2

 SFR-1 SETTING BUDGET TERMS FOR KSTP 1138 AND KPER 2 TO BUDGET FILE TERMS FROM KSTP 1 AND KPER 2

end timestep


start timestep kper="2" kstp="1139" mode="normal"


 FMI SETTING BUDGET TERMS FOR KSTP 1139 AND KPER 2 TO BUDGET FILE TERMS FROM KSTP 1 AND KPER 2

 FMI SETTING HEAD FOR KSTP 1139 AND KPER 2 TO BINARY FILE HEADS FROM KSTP 1 AND KPER 2

 SFR-1 SETTING BUDGET TERMS FOR KSTP 1139 AND KPER 2 TO BUDGET FILE TERMS FROM KSTP 1 AND KPER 2

end timestep


start timestep kper="2" kstp="1140" mode="normal"


 FMI SETTING BUDGET TERMS FOR KSTP 1140 AND KPER 2 TO BUDGET FILE TERMS FROM KSTP 1 AND KPER 2

 FMI SETTING HEAD FOR KSTP 1140 AND KPER 2 TO BINARY FILE HEADS FROM KSTP 1 AND KPER 2

 SFR-1 SETTING BUDGET TERMS FOR KSTP 1140 AND KPER 2 TO BUDGET FILE TERMS FROM KSTP 1 AND KPER 2

 CONCENTRATION WILL BE SAVED ON UNIT 1024 AT END OF TIME STEP 1140, STRESS PERIOD    2

end timestep


start timestep kper="2" kstp="1141" mode="normal"


 FMI SETTING BUDGET TERMS FOR KSTP 1141 AND KPER 2 TO BUDGET FILE TERMS FROM KSTP 1 AND KPER 2

 FMI SETTING HEAD FOR KSTP 1141 AND KPER 2 TO BINARY FILE HEADS FROM KSTP 1 AND KPER 2

 SFR-1 SETTING BUDGET TERMS FOR KSTP 1141 AND KPER 2 TO BUDGET FILE TERMS FROM KSTP 1 AND KPER 2

end timestep


start timestep kper="2" kstp="1142" mode="normal"


 FMI SETTING BUDGET TERMS FOR KSTP 1142 AND KPER 2 TO BUDGET FILE TERMS FROM KSTP 1 AND KPER 2

 FMI SETTING HEAD FOR KSTP 1142 AND KPER 2 TO BINARY FILE HEADS FROM KSTP 1 AND KPER 2

 SFR-1 SETTING BUDGET TERMS FOR KSTP 1142 AND KPER 2 TO BUDGET FILE TERMS FROM KSTP 1 AND KPER 2

end timestep


start timestep kper="2" kstp="1143" mode="normal"


 FMI SETTING BUDGET TERMS FOR KSTP 1143 AND KPER 2 TO BUDGET FILE TERMS FROM KSTP 1 AND KPER 2

 FMI SETTING HEAD FOR KSTP 1143 AND KPER 2 TO BINARY FILE HEADS FROM KSTP 1 AND KPER 2

 SFR-1 SETTING BUDGET TERMS FOR KSTP 1143 AND KPER 2 TO BUDGET FILE TERMS FROM KSTP 1 AND KPER 2

end timestep


start timestep kper="2" kstp="1144" mode="normal"


 FMI SETTING BUDGET TERMS FOR KSTP 1144 AND KPER 2 TO BUDGET FILE TERMS FROM KSTP 1 AND KPER 2

 FMI SETTING HEAD FOR KSTP 1144 AND KPER 2 TO BINARY FILE HEADS FROM KSTP 1 AND KPER 2

 SFR-1 SETTING BUDGET TERMS FOR KSTP 1144 AND KPER 2 TO BUDGET FILE TERMS FROM KSTP 1 AND KPER 2

end timestep


start timestep kper="2" kstp="1145" mode="normal"


 FMI SETTING BUDGET TERMS FOR KSTP 1145 AND KPER 2 TO BUDGET FILE TERMS FROM KSTP 1 AND KPER 2

 FMI SETTING HEAD FOR KSTP 1145 AND KPER 2 TO BINARY FILE HEADS FROM KSTP 1 AND KPER 2

 SFR-1 SETTING BUDGET TERMS FOR KSTP 1145 AND KPER 2 TO BUDGET FILE TERMS FROM KSTP 1 AND KPER 2

end timestep


start timestep kper="2" kstp="1146" mode="normal"


 FMI SETTING BUDGET TERMS FOR KSTP 1146 AND KPER 2 TO BUDGET FILE TERMS FROM KSTP 1 AND KPER 2

 FMI SETTING HEAD FOR KSTP 1146 AND KPER 2 TO BINARY FILE HEADS FROM KSTP 1 AND KPER 2

 SFR-1 SETTING BUDGET TERMS FOR KSTP 1146 AND KPER 2 TO BUDGET FILE TERMS FROM KSTP 1 AND KPER 2

end timestep


start timestep kper="2" kstp="1147" mode="normal"


 FMI SETTING BUDGET TERMS FOR KSTP 1147 AND KPER 2 TO BUDGET FILE TERMS FROM KSTP 1 AND KPER 2

 FMI SETTING HEAD FOR KSTP 1147 AND KPER 2 TO BINARY FILE HEADS FROM KSTP 1 AND KPER 2

 SFR-1 SETTING BUDGET TERMS FOR KSTP 1147 AND KPER 2 TO BUDGET FILE TERMS FROM KSTP 1 AND KPER 2

end timestep


start timestep kper="2" kstp="1148" mode="normal"


 FMI SETTING BUDGET TERMS FOR KSTP 1148 AND KPER 2 TO BUDGET FILE TERMS FROM KSTP 1 AND KPER 2

 FMI SETTING HEAD FOR KSTP 1148 AND KPER 2 TO BINARY FILE HEADS FROM KSTP 1 AND KPER 2

 SFR-1 SETTING BUDGET TERMS FOR KSTP 1148 AND KPER 2 TO BUDGET FILE TERMS FROM KSTP 1 AND KPER 2

end timestep


start timestep kper="2" kstp="1149" mode="normal"


 FMI SETTING BUDGET TERMS FOR KSTP 1149 AND KPER 2 TO BUDGET FILE TERMS FROM KSTP 1 AND KPER 2

 FMI SETTING HEAD FOR KSTP 1149 AND KPER 2 TO BINARY FILE HEADS FROM KSTP 1 AND KPER 2

 SFR-1 SETTING BUDGET TERMS FOR KSTP 1149 AND KPER 2 TO BUDGET FILE TERMS FROM KSTP 1 AND KPER 2

end timestep


start timestep kper="2" kstp="1150" mode="normal"


 FMI SETTING BUDGET TERMS FOR KSTP 1150 AND KPER 2 TO BUDGET FILE TERMS FROM KSTP 1 AND KPER 2

 FMI SETTING HEAD FOR KSTP 1150 AND KPER 2 TO BINARY FILE HEADS FROM KSTP 1 AND KPER 2

 SFR-1 SETTING BUDGET TERMS FOR KSTP 1150 AND KPER 2 TO BUDGET FILE TERMS FROM KSTP 1 AND KPER 2

 CONCENTRATION WILL BE SAVED ON UNIT 1024 AT END OF TIME STEP 1150, STRESS PERIOD    2

end timestep


start timestep kper="2" kstp="1151" mode="normal"


 FMI SETTING BUDGET TERMS FOR KSTP 1151 AND KPER 2 TO BUDGET FILE TERMS FROM KSTP 1 AND KPER 2

 FMI SETTING HEAD FOR KSTP 1151 AND KPER 2 TO BINARY FILE HEADS FROM KSTP 1 AND KPER 2

 SFR-1 SETTING BUDGET TERMS FOR KSTP 1151 AND KPER 2 TO BUDGET FILE TERMS FROM KSTP 1 AND KPER 2

end timestep


start timestep kper="2" kstp="1152" mode="normal"


 FMI SETTING BUDGET TERMS FOR KSTP 1152 AND KPER 2 TO BUDGET FILE TERMS FROM KSTP 1 AND KPER 2

 FMI SETTING HEAD FOR KSTP 1152 AND KPER 2 TO BINARY FILE HEADS FROM KSTP 1 AND KPER 2

 SFR-1 SETTING BUDGET TERMS FOR KSTP 1152 AND KPER 2 TO BUDGET FILE TERMS FROM KSTP 1 AND KPER 2

end timestep


start timestep kper="2" kstp="1153" mode="normal"


 FMI SETTING BUDGET TERMS FOR KSTP 1153 AND KPER 2 TO BUDGET FILE TERMS FROM KSTP 1 AND KPER 2

 FMI SETTING HEAD FOR KSTP 1153 AND KPER 2 TO BINARY FILE HEADS FROM KSTP 1 AND KPER 2

 SFR-1 SETTING BUDGET TERMS FOR KSTP 1153 AND KPER 2 TO BUDGET FILE TERMS FROM KSTP 1 AND KPER 2

end timestep


start timestep kper="2" kstp="1154" mode="normal"


 FMI SETTING BUDGET TERMS FOR KSTP 1154 AND KPER 2 TO BUDGET FILE TERMS FROM KSTP 1 AND KPER 2

 FMI SETTING HEAD FOR KSTP 1154 AND KPER 2 TO BINARY FILE HEADS FROM KSTP 1 AND KPER 2

 SFR-1 SETTING BUDGET TERMS FOR KSTP 1154 AND KPER 2 TO BUDGET FILE TERMS FROM KSTP 1 AND KPER 2

end timestep


start timestep kper="2" kstp="1155" mode="normal"


 FMI SETTING BUDGET TERMS FOR KSTP 1155 AND KPER 2 TO BUDGET FILE TERMS FROM KSTP 1 AND KPER 2

 FMI SETTING HEAD FOR KSTP 1155 AND KPER 2 TO BINARY FILE HEADS FROM KSTP 1 AND KPER 2

 SFR-1 SETTING BUDGET TERMS FOR KSTP 1155 AND KPER 2 TO BUDGET FILE TERMS FROM KSTP 1 AND KPER 2

end timestep


start timestep kper="2" kstp="1156" mode="normal"


 FMI SETTING BUDGET TERMS FOR KSTP 1156 AND KPER 2 TO BUDGET FILE TERMS FROM KSTP 1 AND KPER 2

 FMI SETTING HEAD FOR KSTP 1156 AND KPER 2 TO BINARY FILE HEADS FROM KSTP 1 AND KPER 2

 SFR-1 SETTING BUDGET TERMS FOR KSTP 1156 AND KPER 2 TO BUDGET FILE TERMS FROM KSTP 1 AND KPER 2

end timestep


start timestep kper="2" kstp="1157" mode="normal"


 FMI SETTING BUDGET TERMS FOR KSTP 1157 AND KPER 2 TO BUDGET FILE TERMS FROM KSTP 1 AND KPER 2

 FMI SETTING HEAD FOR KSTP 1157 AND KPER 2 TO BINARY FILE HEADS FROM KSTP 1 AND KPER 2

 SFR-1 SETTING BUDGET TERMS FOR KSTP 1157 AND KPER 2 TO BUDGET FILE TERMS FROM KSTP 1 AND KPER 2

end timestep


start timestep kper="2" kstp="1158" mode="normal"


 FMI SETTING BUDGET TERMS FOR KSTP 1158 AND KPER 2 TO BUDGET FILE TERMS FROM KSTP 1 AND KPER 2

 FMI SETTING HEAD FOR KSTP 1158 AND KPER 2 TO BINARY FILE HEADS FROM KSTP 1 AND KPER 2

 SFR-1 SETTING BUDGET TERMS FOR KSTP 1158 AND KPER 2 TO BUDGET FILE TERMS FROM KSTP 1 AND KPER 2

end timestep


start timestep kper="2" kstp="1159" mode="normal"


 FMI SETTING BUDGET TERMS FOR KSTP 1159 AND KPER 2 TO BUDGET FILE TERMS FROM KSTP 1 AND KPER 2

 FMI SETTING HEAD FOR KSTP 1159 AND KPER 2 TO BINARY FILE HEADS FROM KSTP 1 AND KPER 2

 SFR-1 SETTING BUDGET TERMS FOR KSTP 1159 AND KPER 2 TO BUDGET FILE TERMS FROM KSTP 1 AND KPER 2

end timestep


start timestep kper="2" kstp="1160" mode="normal"


 FMI SETTING BUDGET TERMS FOR KSTP 1160 AND KPER 2 TO BUDGET FILE TERMS FROM KSTP 1 AND KPER 2

 FMI SETTING HEAD FOR KSTP 1160 AND KPER 2 TO BINARY FILE HEADS FROM KSTP 1 AND KPER 2

 SFR-1 SETTING BUDGET TERMS FOR KSTP 1160 AND KPER 2 TO BUDGET FILE TERMS FROM KSTP 1 AND KPER 2

 CONCENTRATION WILL BE SAVED ON UNIT 1024 AT END OF TIME STEP 1160, STRESS PERIOD    2

end timestep


start timestep kper="2" kstp="1161" mode="normal"


 FMI SETTING BUDGET TERMS FOR KSTP 1161 AND KPER 2 TO BUDGET FILE TERMS FROM KSTP 1 AND KPER 2

 FMI SETTING HEAD FOR KSTP 1161 AND KPER 2 TO BINARY FILE HEADS FROM KSTP 1 AND KPER 2

 SFR-1 SETTING BUDGET TERMS FOR KSTP 1161 AND KPER 2 TO BUDGET FILE TERMS FROM KSTP 1 AND KPER 2

end timestep


start timestep kper="2" kstp="1162" mode="normal"


 FMI SETTING BUDGET TERMS FOR KSTP 1162 AND KPER 2 TO BUDGET FILE TERMS FROM KSTP 1 AND KPER 2

 FMI SETTING HEAD FOR KSTP 1162 AND KPER 2 TO BINARY FILE HEADS FROM KSTP 1 AND KPER 2

 SFR-1 SETTING BUDGET TERMS FOR KSTP 1162 AND KPER 2 TO BUDGET FILE TERMS FROM KSTP 1 AND KPER 2

end timestep


start timestep kper="2" kstp="1163" mode="normal"


 FMI SETTING BUDGET TERMS FOR KSTP 1163 AND KPER 2 TO BUDGET FILE TERMS FROM KSTP 1 AND KPER 2

 FMI SETTING HEAD FOR KSTP 1163 AND KPER 2 TO BINARY FILE HEADS FROM KSTP 1 AND KPER 2

 SFR-1 SETTING BUDGET TERMS FOR KSTP 1163 AND KPER 2 TO BUDGET FILE TERMS FROM KSTP 1 AND KPER 2

end timestep


start timestep kper="2" kstp="1164" mode="normal"


 FMI SETTING BUDGET TERMS FOR KSTP 1164 AND KPER 2 TO BUDGET FILE TERMS FROM KSTP 1 AND KPER 2

 FMI SETTING HEAD FOR KSTP 1164 AND KPER 2 TO BINARY FILE HEADS FROM KSTP 1 AND KPER 2

 SFR-1 SETTING BUDGET TERMS FOR KSTP 1164 AND KPER 2 TO BUDGET FILE TERMS FROM KSTP 1 AND KPER 2

end timestep


start timestep kper="2" kstp="1165" mode="normal"


 FMI SETTING BUDGET TERMS FOR KSTP 1165 AND KPER 2 TO BUDGET FILE TERMS FROM KSTP 1 AND KPER 2

 FMI SETTING HEAD FOR KSTP 1165 AND KPER 2 TO BINARY FILE HEADS FROM KSTP 1 AND KPER 2

 SFR-1 SETTING BUDGET TERMS FOR KSTP 1165 AND KPER 2 TO BUDGET FILE TERMS FROM KSTP 1 AND KPER 2

end timestep


start timestep kper="2" kstp="1166" mode="normal"


 FMI SETTING BUDGET TERMS FOR KSTP 1166 AND KPER 2 TO BUDGET FILE TERMS FROM KSTP 1 AND KPER 2

 FMI SETTING HEAD FOR KSTP 1166 AND KPER 2 TO BINARY FILE HEADS FROM KSTP 1 AND KPER 2

 SFR-1 SETTING BUDGET TERMS FOR KSTP 1166 AND KPER 2 TO BUDGET FILE TERMS FROM KSTP 1 AND KPER 2

end timestep


start timestep kper="2" kstp="1167" mode="normal"


 FMI SETTING BUDGET TERMS FOR KSTP 1167 AND KPER 2 TO BUDGET FILE TERMS FROM KSTP 1 AND KPER 2

 FMI SETTING HEAD FOR KSTP 1167 AND KPER 2 TO BINARY FILE HEADS FROM KSTP 1 AND KPER 2

 SFR-1 SETTING BUDGET TERMS FOR KSTP 1167 AND KPER 2 TO BUDGET FILE TERMS FROM KSTP 1 AND KPER 2

end timestep


start timestep kper="2" kstp="1168" mode="normal"


 FMI SETTING BUDGET TERMS FOR KSTP 1168 AND KPER 2 TO BUDGET FILE TERMS FROM KSTP 1 AND KPER 2

 FMI SETTING HEAD FOR KSTP 1168 AND KPER 2 TO BINARY FILE HEADS FROM KSTP 1 AND KPER 2

 SFR-1 SETTING BUDGET TERMS FOR KSTP 1168 AND KPER 2 TO BUDGET FILE TERMS FROM KSTP 1 AND KPER 2

end timestep


start timestep kper="2" kstp="1169" mode="normal"


 FMI SETTING BUDGET TERMS FOR KSTP 1169 AND KPER 2 TO BUDGET FILE TERMS FROM KSTP 1 AND KPER 2

 FMI SETTING HEAD FOR KSTP 1169 AND KPER 2 TO BINARY FILE HEADS FROM KSTP 1 AND KPER 2

 SFR-1 SETTING BUDGET TERMS FOR KSTP 1169 AND KPER 2 TO BUDGET FILE TERMS FROM KSTP 1 AND KPER 2

end timestep


start timestep kper="2" kstp="1170" mode="normal"


 FMI SETTING BUDGET TERMS FOR KSTP 1170 AND KPER 2 TO BUDGET FILE TERMS FROM KSTP 1 AND KPER 2

 FMI SETTING HEAD FOR KSTP 1170 AND KPER 2 TO BINARY FILE HEADS FROM KSTP 1 AND KPER 2

 SFR-1 SETTING BUDGET TERMS FOR KSTP 1170 AND KPER 2 TO BUDGET FILE TERMS FROM KSTP 1 AND KPER 2

 CONCENTRATION WILL BE SAVED ON UNIT 1024 AT END OF TIME STEP 1170, STRESS PERIOD    2

end timestep


start timestep kper="2" kstp="1171" mode="normal"


 FMI SETTING BUDGET TERMS FOR KSTP 1171 AND KPER 2 TO BUDGET FILE TERMS FROM KSTP 1 AND KPER 2

 FMI SETTING HEAD FOR KSTP 1171 AND KPER 2 TO BINARY FILE HEADS FROM KSTP 1 AND KPER 2

 SFR-1 SETTING BUDGET TERMS FOR KSTP 1171 AND KPER 2 TO BUDGET FILE TERMS FROM KSTP 1 AND KPER 2

end timestep


start timestep kper="2" kstp="1172" mode="normal"


 FMI SETTING BUDGET TERMS FOR KSTP 1172 AND KPER 2 TO BUDGET FILE TERMS FROM KSTP 1 AND KPER 2

 FMI SETTING HEAD FOR KSTP 1172 AND KPER 2 TO BINARY FILE HEADS FROM KSTP 1 AND KPER 2

 SFR-1 SETTING BUDGET TERMS FOR KSTP 1172 AND KPER 2 TO BUDGET FILE TERMS FROM KSTP 1 AND KPER 2

end timestep


start timestep kper="2" kstp="1173" mode="normal"


 FMI SETTING BUDGET TERMS FOR KSTP 1173 AND KPER 2 TO BUDGET FILE TERMS FROM KSTP 1 AND KPER 2

 FMI SETTING HEAD FOR KSTP 1173 AND KPER 2 TO BINARY FILE HEADS FROM KSTP 1 AND KPER 2

 SFR-1 SETTING BUDGET TERMS FOR KSTP 1173 AND KPER 2 TO BUDGET FILE TERMS FROM KSTP 1 AND KPER 2

end timestep


start timestep kper="2" kstp="1174" mode="normal"


 FMI SETTING BUDGET TERMS FOR KSTP 1174 AND KPER 2 TO BUDGET FILE TERMS FROM KSTP 1 AND KPER 2

 FMI SETTING HEAD FOR KSTP 1174 AND KPER 2 TO BINARY FILE HEADS FROM KSTP 1 AND KPER 2

 SFR-1 SETTING BUDGET TERMS FOR KSTP 1174 AND KPER 2 TO BUDGET FILE TERMS FROM KSTP 1 AND KPER 2

end timestep


start timestep kper="2" kstp="1175" mode="normal"


 FMI SETTING BUDGET TERMS FOR KSTP 1175 AND KPER 2 TO BUDGET FILE TERMS FROM KSTP 1 AND KPER 2

 FMI SETTING HEAD FOR KSTP 1175 AND KPER 2 TO BINARY FILE HEADS FROM KSTP 1 AND KPER 2

 SFR-1 SETTING BUDGET TERMS FOR KSTP 1175 AND KPER 2 TO BUDGET FILE TERMS FROM KSTP 1 AND KPER 2

end timestep


start timestep kper="2" kstp="1176" mode="normal"


 FMI SETTING BUDGET TERMS FOR KSTP 1176 AND KPER 2 TO BUDGET FILE TERMS FROM KSTP 1 AND KPER 2

 FMI SETTING HEAD FOR KSTP 1176 AND KPER 2 TO BINARY FILE HEADS FROM KSTP 1 AND KPER 2

 SFR-1 SETTING BUDGET TERMS FOR KSTP 1176 AND KPER 2 TO BUDGET FILE TERMS FROM KSTP 1 AND KPER 2

end timestep


start timestep kper="2" kstp="1177" mode="normal"


 FMI SETTING BUDGET TERMS FOR KSTP 1177 AND KPER 2 TO BUDGET FILE TERMS FROM KSTP 1 AND KPER 2

 FMI SETTING HEAD FOR KSTP 1177 AND KPER 2 TO BINARY FILE HEADS FROM KSTP 1 AND KPER 2

 SFR-1 SETTING BUDGET TERMS FOR KSTP 1177 AND KPER 2 TO BUDGET FILE TERMS FROM KSTP 1 AND KPER 2

end timestep


start timestep kper="2" kstp="1178" mode="normal"


 FMI SETTING BUDGET TERMS FOR KSTP 1178 AND KPER 2 TO BUDGET FILE TERMS FROM KSTP 1 AND KPER 2

 FMI SETTING HEAD FOR KSTP 1178 AND KPER 2 TO BINARY FILE HEADS FROM KSTP 1 AND KPER 2

 SFR-1 SETTING BUDGET TERMS FOR KSTP 1178 AND KPER 2 TO BUDGET FILE TERMS FROM KSTP 1 AND KPER 2

end timestep


start timestep kper="2" kstp="1179" mode="normal"


 FMI SETTING BUDGET TERMS FOR KSTP 1179 AND KPER 2 TO BUDGET FILE TERMS FROM KSTP 1 AND KPER 2

 FMI SETTING HEAD FOR KSTP 1179 AND KPER 2 TO BINARY FILE HEADS FROM KSTP 1 AND KPER 2

 SFR-1 SETTING BUDGET TERMS FOR KSTP 1179 AND KPER 2 TO BUDGET FILE TERMS FROM KSTP 1 AND KPER 2

end timestep


start timestep kper="2" kstp="1180" mode="normal"


 FMI SETTING BUDGET TERMS FOR KSTP 1180 AND KPER 2 TO BUDGET FILE TERMS FROM KSTP 1 AND KPER 2

 FMI SETTING HEAD FOR KSTP 1180 AND KPER 2 TO BINARY FILE HEADS FROM KSTP 1 AND KPER 2

 SFR-1 SETTING BUDGET TERMS FOR KSTP 1180 AND KPER 2 TO BUDGET FILE TERMS FROM KSTP 1 AND KPER 2

 CONCENTRATION WILL BE SAVED ON UNIT 1024 AT END OF TIME STEP 1180, STRESS PERIOD    2

end timestep


start timestep kper="2" kstp="1181" mode="normal"


 FMI SETTING BUDGET TERMS FOR KSTP 1181 AND KPER 2 TO BUDGET FILE TERMS FROM KSTP 1 AND KPER 2

 FMI SETTING HEAD FOR KSTP 1181 AND KPER 2 TO BINARY FILE HEADS FROM KSTP 1 AND KPER 2

 SFR-1 SETTING BUDGET TERMS FOR KSTP 1181 AND KPER 2 TO BUDGET FILE TERMS FROM KSTP 1 AND KPER 2

end timestep


start timestep kper="2" kstp="1182" mode="normal"


 FMI SETTING BUDGET TERMS FOR KSTP 1182 AND KPER 2 TO BUDGET FILE TERMS FROM KSTP 1 AND KPER 2

 FMI SETTING HEAD FOR KSTP 1182 AND KPER 2 TO BINARY FILE HEADS FROM KSTP 1 AND KPER 2

 SFR-1 SETTING BUDGET TERMS FOR KSTP 1182 AND KPER 2 TO BUDGET FILE TERMS FROM KSTP 1 AND KPER 2

end timestep


start timestep kper="2" kstp="1183" mode="normal"


 FMI SETTING BUDGET TERMS FOR KSTP 1183 AND KPER 2 TO BUDGET FILE TERMS FROM KSTP 1 AND KPER 2

 FMI SETTING HEAD FOR KSTP 1183 AND KPER 2 TO BINARY FILE HEADS FROM KSTP 1 AND KPER 2

 SFR-1 SETTING BUDGET TERMS FOR KSTP 1183 AND KPER 2 TO BUDGET FILE TERMS FROM KSTP 1 AND KPER 2

end timestep


start timestep kper="2" kstp="1184" mode="normal"


 FMI SETTING BUDGET TERMS FOR KSTP 1184 AND KPER 2 TO BUDGET FILE TERMS FROM KSTP 1 AND KPER 2

 FMI SETTING HEAD FOR KSTP 1184 AND KPER 2 TO BINARY FILE HEADS FROM KSTP 1 AND KPER 2

 SFR-1 SETTING BUDGET TERMS FOR KSTP 1184 AND KPER 2 TO BUDGET FILE TERMS FROM KSTP 1 AND KPER 2

end timestep


start timestep kper="2" kstp="1185" mode="normal"


 FMI SETTING BUDGET TERMS FOR KSTP 1185 AND KPER 2 TO BUDGET FILE TERMS FROM KSTP 1 AND KPER 2

 FMI SETTING HEAD FOR KSTP 1185 AND KPER 2 TO BINARY FILE HEADS FROM KSTP 1 AND KPER 2

 SFR-1 SETTING BUDGET TERMS FOR KSTP 1185 AND KPER 2 TO BUDGET FILE TERMS FROM KSTP 1 AND KPER 2

end timestep


start timestep kper="2" kstp="1186" mode="normal"


 FMI SETTING BUDGET TERMS FOR KSTP 1186 AND KPER 2 TO BUDGET FILE TERMS FROM KSTP 1 AND KPER 2

 FMI SETTING HEAD FOR KSTP 1186 AND KPER 2 TO BINARY FILE HEADS FROM KSTP 1 AND KPER 2

 SFR-1 SETTING BUDGET TERMS FOR KSTP 1186 AND KPER 2 TO BUDGET FILE TERMS FROM KSTP 1 AND KPER 2

end timestep


start timestep kper="2" kstp="1187" mode="normal"


 FMI SETTING BUDGET TERMS FOR KSTP 1187 AND KPER 2 TO BUDGET FILE TERMS FROM KSTP 1 AND KPER 2

 FMI SETTING HEAD FOR KSTP 1187 AND KPER 2 TO BINARY FILE HEADS FROM KSTP 1 AND KPER 2

 SFR-1 SETTING BUDGET TERMS FOR KSTP 1187 AND KPER 2 TO BUDGET FILE TERMS FROM KSTP 1 AND KPER 2

end timestep


start timestep kper="2" kstp="1188" mode="normal"


 FMI SETTING BUDGET TERMS FOR KSTP 1188 AND KPER 2 TO BUDGET FILE TERMS FROM KSTP 1 AND KPER 2

 FMI SETTING HEAD FOR KSTP 1188 AND KPER 2 TO BINARY FILE HEADS FROM KSTP 1 AND KPER 2

 SFR-1 SETTING BUDGET TERMS FOR KSTP 1188 AND KPER 2 TO BUDGET FILE TERMS FROM KSTP 1 AND KPER 2

end timestep


start timestep kper="2" kstp="1189" mode="normal"


 FMI SETTING BUDGET TERMS FOR KSTP 1189 AND KPER 2 TO BUDGET FILE TERMS FROM KSTP 1 AND KPER 2

 FMI SETTING HEAD FOR KSTP 1189 AND KPER 2 TO BINARY FILE HEADS FROM KSTP 1 AND KPER 2

 SFR-1 SETTING BUDGET TERMS FOR KSTP 1189 AND KPER 2 TO BUDGET FILE TERMS FROM KSTP 1 AND KPER 2

end timestep


start timestep kper="2" kstp="1190" mode="normal"


 FMI SETTING BUDGET TERMS FOR KSTP 1190 AND KPER 2 TO BUDGET FILE TERMS FROM KSTP 1 AND KPER 2

 FMI SETTING HEAD FOR KSTP 1190 AND KPER 2 TO BINARY FILE HEADS FROM KSTP 1 AND KPER 2

 SFR-1 SETTING BUDGET TERMS FOR KSTP 1190 AND KPER 2 TO BUDGET FILE TERMS FROM KSTP 1 AND KPER 2

 CONCENTRATION WILL BE SAVED ON UNIT 1024 AT END OF TIME STEP 1190, STRESS PERIOD    2

end timestep


start timestep kper="2" kstp="1191" mode="normal"


 FMI SETTING BUDGET TERMS FOR KSTP 1191 AND KPER 2 TO BUDGET FILE TERMS FROM KSTP 1 AND KPER 2

 FMI SETTING HEAD FOR KSTP 1191 AND KPER 2 TO BINARY FILE HEADS FROM KSTP 1 AND KPER 2

 SFR-1 SETTING BUDGET TERMS FOR KSTP 1191 AND KPER 2 TO BUDGET FILE TERMS FROM KSTP 1 AND KPER 2

end timestep


start timestep kper="2" kstp="1192" mode="normal"


 FMI SETTING BUDGET TERMS FOR KSTP 1192 AND KPER 2 TO BUDGET FILE TERMS FROM KSTP 1 AND KPER 2

 FMI SETTING HEAD FOR KSTP 1192 AND KPER 2 TO BINARY FILE HEADS FROM KSTP 1 AND KPER 2

 SFR-1 SETTING BUDGET TERMS FOR KSTP 1192 AND KPER 2 TO BUDGET FILE TERMS FROM KSTP 1 AND KPER 2

end timestep


start timestep kper="2" kstp="1193" mode="normal"


 FMI SETTING BUDGET TERMS FOR KSTP 1193 AND KPER 2 TO BUDGET FILE TERMS FROM KSTP 1 AND KPER 2

 FMI SETTING HEAD FOR KSTP 1193 AND KPER 2 TO BINARY FILE HEADS FROM KSTP 1 AND KPER 2

 SFR-1 SETTING BUDGET TERMS FOR KSTP 1193 AND KPER 2 TO BUDGET FILE TERMS FROM KSTP 1 AND KPER 2

end timestep


start timestep kper="2" kstp="1194" mode="normal"


 FMI SETTING BUDGET TERMS FOR KSTP 1194 AND KPER 2 TO BUDGET FILE TERMS FROM KSTP 1 AND KPER 2

 FMI SETTING HEAD FOR KSTP 1194 AND KPER 2 TO BINARY FILE HEADS FROM KSTP 1 AND KPER 2

 SFR-1 SETTING BUDGET TERMS FOR KSTP 1194 AND KPER 2 TO BUDGET FILE TERMS FROM KSTP 1 AND KPER 2

end timestep


start timestep kper="2" kstp="1195" mode="normal"


 FMI SETTING BUDGET TERMS FOR KSTP 1195 AND KPER 2 TO BUDGET FILE TERMS FROM KSTP 1 AND KPER 2

 FMI SETTING HEAD FOR KSTP 1195 AND KPER 2 TO BINARY FILE HEADS FROM KSTP 1 AND KPER 2

 SFR-1 SETTING BUDGET TERMS FOR KSTP 1195 AND KPER 2 TO BUDGET FILE TERMS FROM KSTP 1 AND KPER 2

end timestep


start timestep kper="2" kstp="1196" mode="normal"


 FMI SETTING BUDGET TERMS FOR KSTP 1196 AND KPER 2 TO BUDGET FILE TERMS FROM KSTP 1 AND KPER 2

 FMI SETTING HEAD FOR KSTP 1196 AND KPER 2 TO BINARY FILE HEADS FROM KSTP 1 AND KPER 2

 SFR-1 SETTING BUDGET TERMS FOR KSTP 1196 AND KPER 2 TO BUDGET FILE TERMS FROM KSTP 1 AND KPER 2

end timestep


start timestep kper="2" kstp="1197" mode="normal"


 FMI SETTING BUDGET TERMS FOR KSTP 1197 AND KPER 2 TO BUDGET FILE TERMS FROM KSTP 1 AND KPER 2

 FMI SETTING HEAD FOR KSTP 1197 AND KPER 2 TO BINARY FILE HEADS FROM KSTP 1 AND KPER 2

 SFR-1 SETTING BUDGET TERMS FOR KSTP 1197 AND KPER 2 TO BUDGET FILE TERMS FROM KSTP 1 AND KPER 2

end timestep


start timestep kper="2" kstp="1198" mode="normal"


 FMI SETTING BUDGET TERMS FOR KSTP 1198 AND KPER 2 TO BUDGET FILE TERMS FROM KSTP 1 AND KPER 2

 FMI SETTING HEAD FOR KSTP 1198 AND KPER 2 TO BINARY FILE HEADS FROM KSTP 1 AND KPER 2

 SFR-1 SETTING BUDGET TERMS FOR KSTP 1198 AND KPER 2 TO BUDGET FILE TERMS FROM KSTP 1 AND KPER 2

end timestep


start timestep kper="2" kstp="1199" mode="normal"


 FMI SETTING BUDGET TERMS FOR KSTP 1199 AND KPER 2 TO BUDGET FILE TERMS FROM KSTP 1 AND KPER 2

 FMI SETTING HEAD FOR KSTP 1199 AND KPER 2 TO BINARY FILE HEADS FROM KSTP 1 AND KPER 2

 SFR-1 SETTING BUDGET TERMS FOR KSTP 1199 AND KPER 2 TO BUDGET FILE TERMS FROM KSTP 1 AND KPER 2

end timestep


start timestep kper="2" kstp="1200" mode="normal"


 FMI SETTING BUDGET TERMS FOR KSTP 1200 AND KPER 2 TO BUDGET FILE TERMS FROM KSTP 1 AND KPER 2

 FMI SETTING HEAD FOR KSTP 1200 AND KPER 2 TO BINARY FILE HEADS FROM KSTP 1 AND KPER 2

 SFR-1 SETTING BUDGET TERMS FOR KSTP 1200 AND KPER 2 TO BUDGET FILE TERMS FROM KSTP 1 AND KPER 2

 CONCENTRATION WILL BE SAVED ON UNIT 1024 AT END OF TIME STEP 1200, STRESS PERIOD    2

end timestep


start timestep kper="2" kstp="1201" mode="normal"


 FMI SETTING BUDGET TERMS FOR KSTP 1201 AND KPER 2 TO BUDGET FILE TERMS FROM KSTP 1 AND KPER 2

 FMI SETTING HEAD FOR KSTP 1201 AND KPER 2 TO BINARY FILE HEADS FROM KSTP 1 AND KPER 2

 SFR-1 SETTING BUDGET TERMS FOR KSTP 1201 AND KPER 2 TO BUDGET FILE TERMS FROM KSTP 1 AND KPER 2

end timestep


start timestep kper="2" kstp="1202" mode="normal"


 FMI SETTING BUDGET TERMS FOR KSTP 1202 AND KPER 2 TO BUDGET FILE TERMS FROM KSTP 1 AND KPER 2

 FMI SETTING HEAD FOR KSTP 1202 AND KPER 2 TO BINARY FILE HEADS FROM KSTP 1 AND KPER 2

 SFR-1 SETTING BUDGET TERMS FOR KSTP 1202 AND KPER 2 TO BUDGET FILE TERMS FROM KSTP 1 AND KPER 2

end timestep


start timestep kper="2" kstp="1203" mode="normal"


 FMI SETTING BUDGET TERMS FOR KSTP 1203 AND KPER 2 TO BUDGET FILE TERMS FROM KSTP 1 AND KPER 2

 FMI SETTING HEAD FOR KSTP 1203 AND KPER 2 TO BINARY FILE HEADS FROM KSTP 1 AND KPER 2

 SFR-1 SETTING BUDGET TERMS FOR KSTP 1203 AND KPER 2 TO BUDGET FILE TERMS FROM KSTP 1 AND KPER 2

end timestep


start timestep kper="2" kstp="1204" mode="normal"


 FMI SETTING BUDGET TERMS FOR KSTP 1204 AND KPER 2 TO BUDGET FILE TERMS FROM KSTP 1 AND KPER 2

 FMI SETTING HEAD FOR KSTP 1204 AND KPER 2 TO BINARY FILE HEADS FROM KSTP 1 AND KPER 2

 SFR-1 SETTING BUDGET TERMS FOR KSTP 1204 AND KPER 2 TO BUDGET FILE TERMS FROM KSTP 1 AND KPER 2

end timestep


start timestep kper="2" kstp="1205" mode="normal"


 FMI SETTING BUDGET TERMS FOR KSTP 1205 AND KPER 2 TO BUDGET FILE TERMS FROM KSTP 1 AND KPER 2

 FMI SETTING HEAD FOR KSTP 1205 AND KPER 2 TO BINARY FILE HEADS FROM KSTP 1 AND KPER 2

 SFR-1 SETTING BUDGET TERMS FOR KSTP 1205 AND KPER 2 TO BUDGET FILE TERMS FROM KSTP 1 AND KPER 2

end timestep


start timestep kper="2" kstp="1206" mode="normal"


 FMI SETTING BUDGET TERMS FOR KSTP 1206 AND KPER 2 TO BUDGET FILE TERMS FROM KSTP 1 AND KPER 2

 FMI SETTING HEAD FOR KSTP 1206 AND KPER 2 TO BINARY FILE HEADS FROM KSTP 1 AND KPER 2

 SFR-1 SETTING BUDGET TERMS FOR KSTP 1206 AND KPER 2 TO BUDGET FILE TERMS FROM KSTP 1 AND KPER 2

end timestep


start timestep kper="2" kstp="1207" mode="normal"


 FMI SETTING BUDGET TERMS FOR KSTP 1207 AND KPER 2 TO BUDGET FILE TERMS FROM KSTP 1 AND KPER 2

 FMI SETTING HEAD FOR KSTP 1207 AND KPER 2 TO BINARY FILE HEADS FROM KSTP 1 AND KPER 2

 SFR-1 SETTING BUDGET TERMS FOR KSTP 1207 AND KPER 2 TO BUDGET FILE TERMS FROM KSTP 1 AND KPER 2

end timestep


start timestep kper="2" kstp="1208" mode="normal"


 FMI SETTING BUDGET TERMS FOR KSTP 1208 AND KPER 2 TO BUDGET FILE TERMS FROM KSTP 1 AND KPER 2

 FMI SETTING HEAD FOR KSTP 1208 AND KPER 2 TO BINARY FILE HEADS FROM KSTP 1 AND KPER 2

 SFR-1 SETTING BUDGET TERMS FOR KSTP 1208 AND KPER 2 TO BUDGET FILE TERMS FROM KSTP 1 AND KPER 2

end timestep


start timestep kper="2" kstp="1209" mode="normal"


 FMI SETTING BUDGET TERMS FOR KSTP 1209 AND KPER 2 TO BUDGET FILE TERMS FROM KSTP 1 AND KPER 2

 FMI SETTING HEAD FOR KSTP 1209 AND KPER 2 TO BINARY FILE HEADS FROM KSTP 1 AND KPER 2

 SFR-1 SETTING BUDGET TERMS FOR KSTP 1209 AND KPER 2 TO BUDGET FILE TERMS FROM KSTP 1 AND KPER 2

end timestep


start timestep kper="2" kstp="1210" mode="normal"


 FMI SETTING BUDGET TERMS FOR KSTP 1210 AND KPER 2 TO BUDGET FILE TERMS FROM KSTP 1 AND KPER 2

 FMI SETTING HEAD FOR KSTP 1210 AND KPER 2 TO BINARY FILE HEADS FROM KSTP 1 AND KPER 2

 SFR-1 SETTING BUDGET TERMS FOR KSTP 1210 AND KPER 2 TO BUDGET FILE TERMS FROM KSTP 1 AND KPER 2

 CONCENTRATION WILL BE SAVED ON UNIT 1024 AT END OF TIME STEP 1210, STRESS PERIOD    2

end timestep


start timestep kper="2" kstp="1211" mode="normal"


 FMI SETTING BUDGET TERMS FOR KSTP 1211 AND KPER 2 TO BUDGET FILE TERMS FROM KSTP 1 AND KPER 2

 FMI SETTING HEAD FOR KSTP 1211 AND KPER 2 TO BINARY FILE HEADS FROM KSTP 1 AND KPER 2

 SFR-1 SETTING BUDGET TERMS FOR KSTP 1211 AND KPER 2 TO BUDGET FILE TERMS FROM KSTP 1 AND KPER 2

end timestep


start timestep kper="2" kstp="1212" mode="normal"


 FMI SETTING BUDGET TERMS FOR KSTP 1212 AND KPER 2 TO BUDGET FILE TERMS FROM KSTP 1 AND KPER 2

 FMI SETTING HEAD FOR KSTP 1212 AND KPER 2 TO BINARY FILE HEADS FROM KSTP 1 AND KPER 2

 SFR-1 SETTING BUDGET TERMS FOR KSTP 1212 AND KPER 2 TO BUDGET FILE TERMS FROM KSTP 1 AND KPER 2

end timestep


start timestep kper="2" kstp="1213" mode="normal"


 FMI SETTING BUDGET TERMS FOR KSTP 1213 AND KPER 2 TO BUDGET FILE TERMS FROM KSTP 1 AND KPER 2

 FMI SETTING HEAD FOR KSTP 1213 AND KPER 2 TO BINARY FILE HEADS FROM KSTP 1 AND KPER 2

 SFR-1 SETTING BUDGET TERMS FOR KSTP 1213 AND KPER 2 TO BUDGET FILE TERMS FROM KSTP 1 AND KPER 2

end timestep


start timestep kper="2" kstp="1214" mode="normal"


 FMI SETTING BUDGET TERMS FOR KSTP 1214 AND KPER 2 TO BUDGET FILE TERMS FROM KSTP 1 AND KPER 2

 FMI SETTING HEAD FOR KSTP 1214 AND KPER 2 TO BINARY FILE HEADS FROM KSTP 1 AND KPER 2

 SFR-1 SETTING BUDGET TERMS FOR KSTP 1214 AND KPER 2 TO BUDGET FILE TERMS FROM KSTP 1 AND KPER 2

end timestep


start timestep kper="2" kstp="1215" mode="normal"


 FMI SETTING BUDGET TERMS FOR KSTP 1215 AND KPER 2 TO BUDGET FILE TERMS FROM KSTP 1 AND KPER 2

 FMI SETTING HEAD FOR KSTP 1215 AND KPER 2 TO BINARY FILE HEADS FROM KSTP 1 AND KPER 2

 SFR-1 SETTING BUDGET TERMS FOR KSTP 1215 AND KPER 2 TO BUDGET FILE TERMS FROM KSTP 1 AND KPER 2

end timestep


start timestep kper="2" kstp="1216" mode="normal"


 FMI SETTING BUDGET TERMS FOR KSTP 1216 AND KPER 2 TO BUDGET FILE TERMS FROM KSTP 1 AND KPER 2

 FMI SETTING HEAD FOR KSTP 1216 AND KPER 2 TO BINARY FILE HEADS FROM KSTP 1 AND KPER 2

 SFR-1 SETTING BUDGET TERMS FOR KSTP 1216 AND KPER 2 TO BUDGET FILE TERMS FROM KSTP 1 AND KPER 2

end timestep


start timestep kper="2" kstp="1217" mode="normal"


 FMI SETTING BUDGET TERMS FOR KSTP 1217 AND KPER 2 TO BUDGET FILE TERMS FROM KSTP 1 AND KPER 2

 FMI SETTING HEAD FOR KSTP 1217 AND KPER 2 TO BINARY FILE HEADS FROM KSTP 1 AND KPER 2

 SFR-1 SETTING BUDGET TERMS FOR KSTP 1217 AND KPER 2 TO BUDGET FILE TERMS FROM KSTP 1 AND KPER 2

end timestep


start timestep kper="2" kstp="1218" mode="normal"


 FMI SETTING BUDGET TERMS FOR KSTP 1218 AND KPER 2 TO BUDGET FILE TERMS FROM KSTP 1 AND KPER 2

 FMI SETTING HEAD FOR KSTP 1218 AND KPER 2 TO BINARY FILE HEADS FROM KSTP 1 AND KPER 2

 SFR-1 SETTING BUDGET TERMS FOR KSTP 1218 AND KPER 2 TO BUDGET FILE TERMS FROM KSTP 1 AND KPER 2

end timestep


start timestep kper="2" kstp="1219" mode="normal"


 FMI SETTING BUDGET TERMS FOR KSTP 1219 AND KPER 2 TO BUDGET FILE TERMS FROM KSTP 1 AND KPER 2

 FMI SETTING HEAD FOR KSTP 1219 AND KPER 2 TO BINARY FILE HEADS FROM KSTP 1 AND KPER 2

 SFR-1 SETTING BUDGET TERMS FOR KSTP 1219 AND KPER 2 TO BUDGET FILE TERMS FROM KSTP 1 AND KPER 2

end timestep


start timestep kper="2" kstp="1220" mode="normal"


 FMI SETTING BUDGET TERMS FOR KSTP 1220 AND KPER 2 TO BUDGET FILE TERMS FROM KSTP 1 AND KPER 2

 FMI SETTING HEAD FOR KSTP 1220 AND KPER 2 TO BINARY FILE HEADS FROM KSTP 1 AND KPER 2

 SFR-1 SETTING BUDGET TERMS FOR KSTP 1220 AND KPER 2 TO BUDGET FILE TERMS FROM KSTP 1 AND KPER 2

 CONCENTRATION WILL BE SAVED ON UNIT 1024 AT END OF TIME STEP 1220, STRESS PERIOD    2

end timestep


start timestep kper="2" kstp="1221" mode="normal"


 FMI SETTING BUDGET TERMS FOR KSTP 1221 AND KPER 2 TO BUDGET FILE TERMS FROM KSTP 1 AND KPER 2

 FMI SETTING HEAD FOR KSTP 1221 AND KPER 2 TO BINARY FILE HEADS FROM KSTP 1 AND KPER 2

 SFR-1 SETTING BUDGET TERMS FOR KSTP 1221 AND KPER 2 TO BUDGET FILE TERMS FROM KSTP 1 AND KPER 2

end timestep


start timestep kper="2" kstp="1222" mode="normal"


 FMI SETTING BUDGET TERMS FOR KSTP 1222 AND KPER 2 TO BUDGET FILE TERMS FROM KSTP 1 AND KPER 2

 FMI SETTING HEAD FOR KSTP 1222 AND KPER 2 TO BINARY FILE HEADS FROM KSTP 1 AND KPER 2

 SFR-1 SETTING BUDGET TERMS FOR KSTP 1222 AND KPER 2 TO BUDGET FILE TERMS FROM KSTP 1 AND KPER 2

end timestep


start timestep kper="2" kstp="1223" mode="normal"


 FMI SETTING BUDGET TERMS FOR KSTP 1223 AND KPER 2 TO BUDGET FILE TERMS FROM KSTP 1 AND KPER 2

 FMI SETTING HEAD FOR KSTP 1223 AND KPER 2 TO BINARY FILE HEADS FROM KSTP 1 AND KPER 2

 SFR-1 SETTING BUDGET TERMS FOR KSTP 1223 AND KPER 2 TO BUDGET FILE TERMS FROM KSTP 1 AND KPER 2

end timestep


start timestep kper="2" kstp="1224" mode="normal"


 FMI SETTING BUDGET TERMS FOR KSTP 1224 AND KPER 2 TO BUDGET FILE TERMS FROM KSTP 1 AND KPER 2

 FMI SETTING HEAD FOR KSTP 1224 AND KPER 2 TO BINARY FILE HEADS FROM KSTP 1 AND KPER 2

 SFR-1 SETTING BUDGET TERMS FOR KSTP 1224 AND KPER 2 TO BUDGET FILE TERMS FROM KSTP 1 AND KPER 2

end timestep


start timestep kper="2" kstp="1225" mode="normal"


 FMI SETTING BUDGET TERMS FOR KSTP 1225 AND KPER 2 TO BUDGET FILE TERMS FROM KSTP 1 AND KPER 2

 FMI SETTING HEAD FOR KSTP 1225 AND KPER 2 TO BINARY FILE HEADS FROM KSTP 1 AND KPER 2

 SFR-1 SETTING BUDGET TERMS FOR KSTP 1225 AND KPER 2 TO BUDGET FILE TERMS FROM KSTP 1 AND KPER 2

end timestep


start timestep kper="2" kstp="1226" mode="normal"


 FMI SETTING BUDGET TERMS FOR KSTP 1226 AND KPER 2 TO BUDGET FILE TERMS FROM KSTP 1 AND KPER 2

 FMI SETTING HEAD FOR KSTP 1226 AND KPER 2 TO BINARY FILE HEADS FROM KSTP 1 AND KPER 2

 SFR-1 SETTING BUDGET TERMS FOR KSTP 1226 AND KPER 2 TO BUDGET FILE TERMS FROM KSTP 1 AND KPER 2

end timestep


start timestep kper="2" kstp="1227" mode="normal"


 FMI SETTING BUDGET TERMS FOR KSTP 1227 AND KPER 2 TO BUDGET FILE TERMS FROM KSTP 1 AND KPER 2

 FMI SETTING HEAD FOR KSTP 1227 AND KPER 2 TO BINARY FILE HEADS FROM KSTP 1 AND KPER 2

 SFR-1 SETTING BUDGET TERMS FOR KSTP 1227 AND KPER 2 TO BUDGET FILE TERMS FROM KSTP 1 AND KPER 2

end timestep


start timestep kper="2" kstp="1228" mode="normal"


 FMI SETTING BUDGET TERMS FOR KSTP 1228 AND KPER 2 TO BUDGET FILE TERMS FROM KSTP 1 AND KPER 2

 FMI SETTING HEAD FOR KSTP 1228 AND KPER 2 TO BINARY FILE HEADS FROM KSTP 1 AND KPER 2

 SFR-1 SETTING BUDGET TERMS FOR KSTP 1228 AND KPER 2 TO BUDGET FILE TERMS FROM KSTP 1 AND KPER 2

end timestep


start timestep kper="2" kstp="1229" mode="normal"


 FMI SETTING BUDGET TERMS FOR KSTP 1229 AND KPER 2 TO BUDGET FILE TERMS FROM KSTP 1 AND KPER 2

 FMI SETTING HEAD FOR KSTP 1229 AND KPER 2 TO BINARY FILE HEADS FROM KSTP 1 AND KPER 2

 SFR-1 SETTING BUDGET TERMS FOR KSTP 1229 AND KPER 2 TO BUDGET FILE TERMS FROM KSTP 1 AND KPER 2

end timestep


start timestep kper="2" kstp="1230" mode="normal"


 FMI SETTING BUDGET TERMS FOR KSTP 1230 AND KPER 2 TO BUDGET FILE TERMS FROM KSTP 1 AND KPER 2

 FMI SETTING HEAD FOR KSTP 1230 AND KPER 2 TO BINARY FILE HEADS FROM KSTP 1 AND KPER 2

 SFR-1 SETTING BUDGET TERMS FOR KSTP 1230 AND KPER 2 TO BUDGET FILE TERMS FROM KSTP 1 AND KPER 2

 CONCENTRATION WILL BE SAVED ON UNIT 1024 AT END OF TIME STEP 1230, STRESS PERIOD    2

end timestep


start timestep kper="2" kstp="1231" mode="normal"


 FMI SETTING BUDGET TERMS FOR KSTP 1231 AND KPER 2 TO BUDGET FILE TERMS FROM KSTP 1 AND KPER 2

 FMI SETTING HEAD FOR KSTP 1231 AND KPER 2 TO BINARY FILE HEADS FROM KSTP 1 AND KPER 2

 SFR-1 SETTING BUDGET TERMS FOR KSTP 1231 AND KPER 2 TO BUDGET FILE TERMS FROM KSTP 1 AND KPER 2

end timestep


start timestep kper="2" kstp="1232" mode="normal"


 FMI SETTING BUDGET TERMS FOR KSTP 1232 AND KPER 2 TO BUDGET FILE TERMS FROM KSTP 1 AND KPER 2

 FMI SETTING HEAD FOR KSTP 1232 AND KPER 2 TO BINARY FILE HEADS FROM KSTP 1 AND KPER 2

 SFR-1 SETTING BUDGET TERMS FOR KSTP 1232 AND KPER 2 TO BUDGET FILE TERMS FROM KSTP 1 AND KPER 2

end timestep


start timestep kper="2" kstp="1233" mode="normal"


 FMI SETTING BUDGET TERMS FOR KSTP 1233 AND KPER 2 TO BUDGET FILE TERMS FROM KSTP 1 AND KPER 2

 FMI SETTING HEAD FOR KSTP 1233 AND KPER 2 TO BINARY FILE HEADS FROM KSTP 1 AND KPER 2

 SFR-1 SETTING BUDGET TERMS FOR KSTP 1233 AND KPER 2 TO BUDGET FILE TERMS FROM KSTP 1 AND KPER 2

end timestep


start timestep kper="2" kstp="1234" mode="normal"


 FMI SETTING BUDGET TERMS FOR KSTP 1234 AND KPER 2 TO BUDGET FILE TERMS FROM KSTP 1 AND KPER 2

 FMI SETTING HEAD FOR KSTP 1234 AND KPER 2 TO BINARY FILE HEADS FROM KSTP 1 AND KPER 2

 SFR-1 SETTING BUDGET TERMS FOR KSTP 1234 AND KPER 2 TO BUDGET FILE TERMS FROM KSTP 1 AND KPER 2

end timestep


start timestep kper="2" kstp="1235" mode="normal"


 FMI SETTING BUDGET TERMS FOR KSTP 1235 AND KPER 2 TO BUDGET FILE TERMS FROM KSTP 1 AND KPER 2

 FMI SETTING HEAD FOR KSTP 1235 AND KPER 2 TO BINARY FILE HEADS FROM KSTP 1 AND KPER 2

 SFR-1 SETTING BUDGET TERMS FOR KSTP 1235 AND KPER 2 TO BUDGET FILE TERMS FROM KSTP 1 AND KPER 2

end timestep


start timestep kper="2" kstp="1236" mode="normal"


 FMI SETTING BUDGET TERMS FOR KSTP 1236 AND KPER 2 TO BUDGET FILE TERMS FROM KSTP 1 AND KPER 2

 FMI SETTING HEAD FOR KSTP 1236 AND KPER 2 TO BINARY FILE HEADS FROM KSTP 1 AND KPER 2

 SFR-1 SETTING BUDGET TERMS FOR KSTP 1236 AND KPER 2 TO BUDGET FILE TERMS FROM KSTP 1 AND KPER 2

end timestep


start timestep kper="2" kstp="1237" mode="normal"


 FMI SETTING BUDGET TERMS FOR KSTP 1237 AND KPER 2 TO BUDGET FILE TERMS FROM KSTP 1 AND KPER 2

 FMI SETTING HEAD FOR KSTP 1237 AND KPER 2 TO BINARY FILE HEADS FROM KSTP 1 AND KPER 2

 SFR-1 SETTING BUDGET TERMS FOR KSTP 1237 AND KPER 2 TO BUDGET FILE TERMS FROM KSTP 1 AND KPER 2

end timestep


start timestep kper="2" kstp="1238" mode="normal"


 FMI SETTING BUDGET TERMS FOR KSTP 1238 AND KPER 2 TO BUDGET FILE TERMS FROM KSTP 1 AND KPER 2

 FMI SETTING HEAD FOR KSTP 1238 AND KPER 2 TO BINARY FILE HEADS FROM KSTP 1 AND KPER 2

 SFR-1 SETTING BUDGET TERMS FOR KSTP 1238 AND KPER 2 TO BUDGET FILE TERMS FROM KSTP 1 AND KPER 2

end timestep


start timestep kper="2" kstp="1239" mode="normal"


 FMI SETTING BUDGET TERMS FOR KSTP 1239 AND KPER 2 TO BUDGET FILE TERMS FROM KSTP 1 AND KPER 2

 FMI SETTING HEAD FOR KSTP 1239 AND KPER 2 TO BINARY FILE HEADS FROM KSTP 1 AND KPER 2

 SFR-1 SETTING BUDGET TERMS FOR KSTP 1239 AND KPER 2 TO BUDGET FILE TERMS FROM KSTP 1 AND KPER 2

end timestep


start timestep kper="2" kstp="1240" mode="normal"


 FMI SETTING BUDGET TERMS FOR KSTP 1240 AND KPER 2 TO BUDGET FILE TERMS FROM KSTP 1 AND KPER 2

 FMI SETTING HEAD FOR KSTP 1240 AND KPER 2 TO BINARY FILE HEADS FROM KSTP 1 AND KPER 2

 SFR-1 SETTING BUDGET TERMS FOR KSTP 1240 AND KPER 2 TO BUDGET FILE TERMS FROM KSTP 1 AND KPER 2

 CONCENTRATION WILL BE SAVED ON UNIT 1024 AT END OF TIME STEP 1240, STRESS PERIOD    2

end timestep


start timestep kper="2" kstp="1241" mode="normal"


 FMI SETTING BUDGET TERMS FOR KSTP 1241 AND KPER 2 TO BUDGET FILE TERMS FROM KSTP 1 AND KPER 2

 FMI SETTING HEAD FOR KSTP 1241 AND KPER 2 TO BINARY FILE HEADS FROM KSTP 1 AND KPER 2

 SFR-1 SETTING BUDGET TERMS FOR KSTP 1241 AND KPER 2 TO BUDGET FILE TERMS FROM KSTP 1 AND KPER 2

end timestep


start timestep kper="2" kstp="1242" mode="normal"


 FMI SETTING BUDGET TERMS FOR KSTP 1242 AND KPER 2 TO BUDGET FILE TERMS FROM KSTP 1 AND KPER 2

 FMI SETTING HEAD FOR KSTP 1242 AND KPER 2 TO BINARY FILE HEADS FROM KSTP 1 AND KPER 2

 SFR-1 SETTING BUDGET TERMS FOR KSTP 1242 AND KPER 2 TO BUDGET FILE TERMS FROM KSTP 1 AND KPER 2

end timestep


start timestep kper="2" kstp="1243" mode="normal"


 FMI SETTING BUDGET TERMS FOR KSTP 1243 AND KPER 2 TO BUDGET FILE TERMS FROM KSTP 1 AND KPER 2

 FMI SETTING HEAD FOR KSTP 1243 AND KPER 2 TO BINARY FILE HEADS FROM KSTP 1 AND KPER 2

 SFR-1 SETTING BUDGET TERMS FOR KSTP 1243 AND KPER 2 TO BUDGET FILE TERMS FROM KSTP 1 AND KPER 2

end timestep


start timestep kper="2" kstp="1244" mode="normal"


 FMI SETTING BUDGET TERMS FOR KSTP 1244 AND KPER 2 TO BUDGET FILE TERMS FROM KSTP 1 AND KPER 2

 FMI SETTING HEAD FOR KSTP 1244 AND KPER 2 TO BINARY FILE HEADS FROM KSTP 1 AND KPER 2

 SFR-1 SETTING BUDGET TERMS FOR KSTP 1244 AND KPER 2 TO BUDGET FILE TERMS FROM KSTP 1 AND KPER 2

end timestep


start timestep kper="2" kstp="1245" mode="normal"


 FMI SETTING BUDGET TERMS FOR KSTP 1245 AND KPER 2 TO BUDGET FILE TERMS FROM KSTP 1 AND KPER 2

 FMI SETTING HEAD FOR KSTP 1245 AND KPER 2 TO BINARY FILE HEADS FROM KSTP 1 AND KPER 2

 SFR-1 SETTING BUDGET TERMS FOR KSTP 1245 AND KPER 2 TO BUDGET FILE TERMS FROM KSTP 1 AND KPER 2

end timestep


start timestep kper="2" kstp="1246" mode="normal"


 FMI SETTING BUDGET TERMS FOR KSTP 1246 AND KPER 2 TO BUDGET FILE TERMS FROM KSTP 1 AND KPER 2

 FMI SETTING HEAD FOR KSTP 1246 AND KPER 2 TO BINARY FILE HEADS FROM KSTP 1 AND KPER 2

 SFR-1 SETTING BUDGET TERMS FOR KSTP 1246 AND KPER 2 TO BUDGET FILE TERMS FROM KSTP 1 AND KPER 2

end timestep


start timestep kper="2" kstp="1247" mode="normal"


 FMI SETTING BUDGET TERMS FOR KSTP 1247 AND KPER 2 TO BUDGET FILE TERMS FROM KSTP 1 AND KPER 2

 FMI SETTING HEAD FOR KSTP 1247 AND KPER 2 TO BINARY FILE HEADS FROM KSTP 1 AND KPER 2

 SFR-1 SETTING BUDGET TERMS FOR KSTP 1247 AND KPER 2 TO BUDGET FILE TERMS FROM KSTP 1 AND KPER 2

end timestep


start timestep kper="2" kstp="1248" mode="normal"


 FMI SETTING BUDGET TERMS FOR KSTP 1248 AND KPER 2 TO BUDGET FILE TERMS FROM KSTP 1 AND KPER 2

 FMI SETTING HEAD FOR KSTP 1248 AND KPER 2 TO BINARY FILE HEADS FROM KSTP 1 AND KPER 2

 SFR-1 SETTING BUDGET TERMS FOR KSTP 1248 AND KPER 2 TO BUDGET FILE TERMS FROM KSTP 1 AND KPER 2

end timestep


start timestep kper="2" kstp="1249" mode="normal"


 FMI SETTING BUDGET TERMS FOR KSTP 1249 AND KPER 2 TO BUDGET FILE TERMS FROM KSTP 1 AND KPER 2

 FMI SETTING HEAD FOR KSTP 1249 AND KPER 2 TO BINARY FILE HEADS FROM KSTP 1 AND KPER 2

 SFR-1 SETTING BUDGET TERMS FOR KSTP 1249 AND KPER 2 TO BUDGET FILE TERMS FROM KSTP 1 AND KPER 2

end timestep


start timestep kper="2" kstp="1250" mode="normal"


 FMI SETTING BUDGET TERMS FOR KSTP 1250 AND KPER 2 TO BUDGET FILE TERMS FROM KSTP 1 AND KPER 2

 FMI SETTING HEAD FOR KSTP 1250 AND KPER 2 TO BINARY FILE HEADS FROM KSTP 1 AND KPER 2

 SFR-1 SETTING BUDGET TERMS FOR KSTP 1250 AND KPER 2 TO BUDGET FILE TERMS FROM KSTP 1 AND KPER 2

 CONCENTRATION WILL BE SAVED ON UNIT 1024 AT END OF TIME STEP 1250, STRESS PERIOD    2

end timestep


start timestep kper="2" kstp="1251" mode="normal"


 FMI SETTING BUDGET TERMS FOR KSTP 1251 AND KPER 2 TO BUDGET FILE TERMS FROM KSTP 1 AND KPER 2

 FMI SETTING HEAD FOR KSTP 1251 AND KPER 2 TO BINARY FILE HEADS FROM KSTP 1 AND KPER 2

 SFR-1 SETTING BUDGET TERMS FOR KSTP 1251 AND KPER 2 TO BUDGET FILE TERMS FROM KSTP 1 AND KPER 2

end timestep


start timestep kper="2" kstp="1252" mode="normal"


 FMI SETTING BUDGET TERMS FOR KSTP 1252 AND KPER 2 TO BUDGET FILE TERMS FROM KSTP 1 AND KPER 2

 FMI SETTING HEAD FOR KSTP 1252 AND KPER 2 TO BINARY FILE HEADS FROM KSTP 1 AND KPER 2

 SFR-1 SETTING BUDGET TERMS FOR KSTP 1252 AND KPER 2 TO BUDGET FILE TERMS FROM KSTP 1 AND KPER 2

end timestep


start timestep kper="2" kstp="1253" mode="normal"


 FMI SETTING BUDGET TERMS FOR KSTP 1253 AND KPER 2 TO BUDGET FILE TERMS FROM KSTP 1 AND KPER 2

 FMI SETTING HEAD FOR KSTP 1253 AND KPER 2 TO BINARY FILE HEADS FROM KSTP 1 AND KPER 2

 SFR-1 SETTING BUDGET TERMS FOR KSTP 1253 AND KPER 2 TO BUDGET FILE TERMS FROM KSTP 1 AND KPER 2

end timestep


start timestep kper="2" kstp="1254" mode="normal"


 FMI SETTING BUDGET TERMS FOR KSTP 1254 AND KPER 2 TO BUDGET FILE TERMS FROM KSTP 1 AND KPER 2

 FMI SETTING HEAD FOR KSTP 1254 AND KPER 2 TO BINARY FILE HEADS FROM KSTP 1 AND KPER 2

 SFR-1 SETTING BUDGET TERMS FOR KSTP 1254 AND KPER 2 TO BUDGET FILE TERMS FROM KSTP 1 AND KPER 2

end timestep


start timestep kper="2" kstp="1255" mode="normal"


 FMI SETTING BUDGET TERMS FOR KSTP 1255 AND KPER 2 TO BUDGET FILE TERMS FROM KSTP 1 AND KPER 2

 FMI SETTING HEAD FOR KSTP 1255 AND KPER 2 TO BINARY FILE HEADS FROM KSTP 1 AND KPER 2

 SFR-1 SETTING BUDGET TERMS FOR KSTP 1255 AND KPER 2 TO BUDGET FILE TERMS FROM KSTP 1 AND KPER 2

end timestep


start timestep kper="2" kstp="1256" mode="normal"


 FMI SETTING BUDGET TERMS FOR KSTP 1256 AND KPER 2 TO BUDGET FILE TERMS FROM KSTP 1 AND KPER 2

 FMI SETTING HEAD FOR KSTP 1256 AND KPER 2 TO BINARY FILE HEADS FROM KSTP 1 AND KPER 2

 SFR-1 SETTING BUDGET TERMS FOR KSTP 1256 AND KPER 2 TO BUDGET FILE TERMS FROM KSTP 1 AND KPER 2

end timestep


start timestep kper="2" kstp="1257" mode="normal"


 FMI SETTING BUDGET TERMS FOR KSTP 1257 AND KPER 2 TO BUDGET FILE TERMS FROM KSTP 1 AND KPER 2

 FMI SETTING HEAD FOR KSTP 1257 AND KPER 2 TO BINARY FILE HEADS FROM KSTP 1 AND KPER 2

 SFR-1 SETTING BUDGET TERMS FOR KSTP 1257 AND KPER 2 TO BUDGET FILE TERMS FROM KSTP 1 AND KPER 2

end timestep


start timestep kper="2" kstp="1258" mode="normal"


 FMI SETTING BUDGET TERMS FOR KSTP 1258 AND KPER 2 TO BUDGET FILE TERMS FROM KSTP 1 AND KPER 2

 FMI SETTING HEAD FOR KSTP 1258 AND KPER 2 TO BINARY FILE HEADS FROM KSTP 1 AND KPER 2

 SFR-1 SETTING BUDGET TERMS FOR KSTP 1258 AND KPER 2 TO BUDGET FILE TERMS FROM KSTP 1 AND KPER 2

end timestep


start timestep kper="2" kstp="1259" mode="normal"


 FMI SETTING BUDGET TERMS FOR KSTP 1259 AND KPER 2 TO BUDGET FILE TERMS FROM KSTP 1 AND KPER 2

 FMI SETTING HEAD FOR KSTP 1259 AND KPER 2 TO BINARY FILE HEADS FROM KSTP 1 AND KPER 2

 SFR-1 SETTING BUDGET TERMS FOR KSTP 1259 AND KPER 2 TO BUDGET FILE TERMS FROM KSTP 1 AND KPER 2

end timestep


start timestep kper="2" kstp="1260" mode="normal"


 FMI SETTING BUDGET TERMS FOR KSTP 1260 AND KPER 2 TO BUDGET FILE TERMS FROM KSTP 1 AND KPER 2

 FMI SETTING HEAD FOR KSTP 1260 AND KPER 2 TO BINARY FILE HEADS FROM KSTP 1 AND KPER 2

 SFR-1 SETTING BUDGET TERMS FOR KSTP 1260 AND KPER 2 TO BUDGET FILE TERMS FROM KSTP 1 AND KPER 2

 CONCENTRATION WILL BE SAVED ON UNIT 1024 AT END OF TIME STEP 1260, STRESS PERIOD    2

end timestep


start timestep kper="2" kstp="1261" mode="normal"


 FMI SETTING BUDGET TERMS FOR KSTP 1261 AND KPER 2 TO BUDGET FILE TERMS FROM KSTP 1 AND KPER 2

 FMI SETTING HEAD FOR KSTP 1261 AND KPER 2 TO BINARY FILE HEADS FROM KSTP 1 AND KPER 2

 SFR-1 SETTING BUDGET TERMS FOR KSTP 1261 AND KPER 2 TO BUDGET FILE TERMS FROM KSTP 1 AND KPER 2

end timestep


start timestep kper="2" kstp="1262" mode="normal"


 FMI SETTING BUDGET TERMS FOR KSTP 1262 AND KPER 2 TO BUDGET FILE TERMS FROM KSTP 1 AND KPER 2

 FMI SETTING HEAD FOR KSTP 1262 AND KPER 2 TO BINARY FILE HEADS FROM KSTP 1 AND KPER 2

 SFR-1 SETTING BUDGET TERMS FOR KSTP 1262 AND KPER 2 TO BUDGET FILE TERMS FROM KSTP 1 AND KPER 2

end timestep


start timestep kper="2" kstp="1263" mode="normal"


 FMI SETTING BUDGET TERMS FOR KSTP 1263 AND KPER 2 TO BUDGET FILE TERMS FROM KSTP 1 AND KPER 2

 FMI SETTING HEAD FOR KSTP 1263 AND KPER 2 TO BINARY FILE HEADS FROM KSTP 1 AND KPER 2

 SFR-1 SETTING BUDGET TERMS FOR KSTP 1263 AND KPER 2 TO BUDGET FILE TERMS FROM KSTP 1 AND KPER 2

end timestep


start timestep kper="2" kstp="1264" mode="normal"


 FMI SETTING BUDGET TERMS FOR KSTP 1264 AND KPER 2 TO BUDGET FILE TERMS FROM KSTP 1 AND KPER 2

 FMI SETTING HEAD FOR KSTP 1264 AND KPER 2 TO BINARY FILE HEADS FROM KSTP 1 AND KPER 2

 SFR-1 SETTING BUDGET TERMS FOR KSTP 1264 AND KPER 2 TO BUDGET FILE TERMS FROM KSTP 1 AND KPER 2

end timestep


start timestep kper="2" kstp="1265" mode="normal"


 FMI SETTING BUDGET TERMS FOR KSTP 1265 AND KPER 2 TO BUDGET FILE TERMS FROM KSTP 1 AND KPER 2

 FMI SETTING HEAD FOR KSTP 1265 AND KPER 2 TO BINARY FILE HEADS FROM KSTP 1 AND KPER 2

 SFR-1 SETTING BUDGET TERMS FOR KSTP 1265 AND KPER 2 TO BUDGET FILE TERMS FROM KSTP 1 AND KPER 2

end timestep


start timestep kper="2" kstp="1266" mode="normal"


 FMI SETTING BUDGET TERMS FOR KSTP 1266 AND KPER 2 TO BUDGET FILE TERMS FROM KSTP 1 AND KPER 2

 FMI SETTING HEAD FOR KSTP 1266 AND KPER 2 TO BINARY FILE HEADS FROM KSTP 1 AND KPER 2

 SFR-1 SETTING BUDGET TERMS FOR KSTP 1266 AND KPER 2 TO BUDGET FILE TERMS FROM KSTP 1 AND KPER 2

end timestep


start timestep kper="2" kstp="1267" mode="normal"


 FMI SETTING BUDGET TERMS FOR KSTP 1267 AND KPER 2 TO BUDGET FILE TERMS FROM KSTP 1 AND KPER 2

 FMI SETTING HEAD FOR KSTP 1267 AND KPER 2 TO BINARY FILE HEADS FROM KSTP 1 AND KPER 2

 SFR-1 SETTING BUDGET TERMS FOR KSTP 1267 AND KPER 2 TO BUDGET FILE TERMS FROM KSTP 1 AND KPER 2

end timestep


start timestep kper="2" kstp="1268" mode="normal"


 FMI SETTING BUDGET TERMS FOR KSTP 1268 AND KPER 2 TO BUDGET FILE TERMS FROM KSTP 1 AND KPER 2

 FMI SETTING HEAD FOR KSTP 1268 AND KPER 2 TO BINARY FILE HEADS FROM KSTP 1 AND KPER 2

 SFR-1 SETTING BUDGET TERMS FOR KSTP 1268 AND KPER 2 TO BUDGET FILE TERMS FROM KSTP 1 AND KPER 2

end timestep


start timestep kper="2" kstp="1269" mode="normal"


 FMI SETTING BUDGET TERMS FOR KSTP 1269 AND KPER 2 TO BUDGET FILE TERMS FROM KSTP 1 AND KPER 2

 FMI SETTING HEAD FOR KSTP 1269 AND KPER 2 TO BINARY FILE HEADS FROM KSTP 1 AND KPER 2

 SFR-1 SETTING BUDGET TERMS FOR KSTP 1269 AND KPER 2 TO BUDGET FILE TERMS FROM KSTP 1 AND KPER 2

end timestep


start timestep kper="2" kstp="1270" mode="normal"


 FMI SETTING BUDGET TERMS FOR KSTP 1270 AND KPER 2 TO BUDGET FILE TERMS FROM KSTP 1 AND KPER 2

 FMI SETTING HEAD FOR KSTP 1270 AND KPER 2 TO BINARY FILE HEADS FROM KSTP 1 AND KPER 2

 SFR-1 SETTING BUDGET TERMS FOR KSTP 1270 AND KPER 2 TO BUDGET FILE TERMS FROM KSTP 1 AND KPER 2

 CONCENTRATION WILL BE SAVED ON UNIT 1024 AT END OF TIME STEP 1270, STRESS PERIOD    2

end timestep


start timestep kper="2" kstp="1271" mode="normal"


 FMI SETTING BUDGET TERMS FOR KSTP 1271 AND KPER 2 TO BUDGET FILE TERMS FROM KSTP 1 AND KPER 2

 FMI SETTING HEAD FOR KSTP 1271 AND KPER 2 TO BINARY FILE HEADS FROM KSTP 1 AND KPER 2

 SFR-1 SETTING BUDGET TERMS FOR KSTP 1271 AND KPER 2 TO BUDGET FILE TERMS FROM KSTP 1 AND KPER 2

end timestep


start timestep kper="2" kstp="1272" mode="normal"


 FMI SETTING BUDGET TERMS FOR KSTP 1272 AND KPER 2 TO BUDGET FILE TERMS FROM KSTP 1 AND KPER 2

 FMI SETTING HEAD FOR KSTP 1272 AND KPER 2 TO BINARY FILE HEADS FROM KSTP 1 AND KPER 2

 SFR-1 SETTING BUDGET TERMS FOR KSTP 1272 AND KPER 2 TO BUDGET FILE TERMS FROM KSTP 1 AND KPER 2

end timestep


start timestep kper="2" kstp="1273" mode="normal"


 FMI SETTING BUDGET TERMS FOR KSTP 1273 AND KPER 2 TO BUDGET FILE TERMS FROM KSTP 1 AND KPER 2

 FMI SETTING HEAD FOR KSTP 1273 AND KPER 2 TO BINARY FILE HEADS FROM KSTP 1 AND KPER 2

 SFR-1 SETTING BUDGET TERMS FOR KSTP 1273 AND KPER 2 TO BUDGET FILE TERMS FROM KSTP 1 AND KPER 2

end timestep


start timestep kper="2" kstp="1274" mode="normal"


 FMI SETTING BUDGET TERMS FOR KSTP 1274 AND KPER 2 TO BUDGET FILE TERMS FROM KSTP 1 AND KPER 2

 FMI SETTING HEAD FOR KSTP 1274 AND KPER 2 TO BINARY FILE HEADS FROM KSTP 1 AND KPER 2

 SFR-1 SETTING BUDGET TERMS FOR KSTP 1274 AND KPER 2 TO BUDGET FILE TERMS FROM KSTP 1 AND KPER 2

end timestep


start timestep kper="2" kstp="1275" mode="normal"


 FMI SETTING BUDGET TERMS FOR KSTP 1275 AND KPER 2 TO BUDGET FILE TERMS FROM KSTP 1 AND KPER 2

 FMI SETTING HEAD FOR KSTP 1275 AND KPER 2 TO BINARY FILE HEADS FROM KSTP 1 AND KPER 2

 SFR-1 SETTING BUDGET TERMS FOR KSTP 1275 AND KPER 2 TO BUDGET FILE TERMS FROM KSTP 1 AND KPER 2

end timestep


start timestep kper="2" kstp="1276" mode="normal"


 FMI SETTING BUDGET TERMS FOR KSTP 1276 AND KPER 2 TO BUDGET FILE TERMS FROM KSTP 1 AND KPER 2

 FMI SETTING HEAD FOR KSTP 1276 AND KPER 2 TO BINARY FILE HEADS FROM KSTP 1 AND KPER 2

 SFR-1 SETTING BUDGET TERMS FOR KSTP 1276 AND KPER 2 TO BUDGET FILE TERMS FROM KSTP 1 AND KPER 2

end timestep


start timestep kper="2" kstp="1277" mode="normal"


 FMI SETTING BUDGET TERMS FOR KSTP 1277 AND KPER 2 TO BUDGET FILE TERMS FROM KSTP 1 AND KPER 2

 FMI SETTING HEAD FOR KSTP 1277 AND KPER 2 TO BINARY FILE HEADS FROM KSTP 1 AND KPER 2

 SFR-1 SETTING BUDGET TERMS FOR KSTP 1277 AND KPER 2 TO BUDGET FILE TERMS FROM KSTP 1 AND KPER 2

end timestep


start timestep kper="2" kstp="1278" mode="normal"


 FMI SETTING BUDGET TERMS FOR KSTP 1278 AND KPER 2 TO BUDGET FILE TERMS FROM KSTP 1 AND KPER 2

 FMI SETTING HEAD FOR KSTP 1278 AND KPER 2 TO BINARY FILE HEADS FROM KSTP 1 AND KPER 2

 SFR-1 SETTING BUDGET TERMS FOR KSTP 1278 AND KPER 2 TO BUDGET FILE TERMS FROM KSTP 1 AND KPER 2

end timestep


start timestep kper="2" kstp="1279" mode="normal"


 FMI SETTING BUDGET TERMS FOR KSTP 1279 AND KPER 2 TO BUDGET FILE TERMS FROM KSTP 1 AND KPER 2

 FMI SETTING HEAD FOR KSTP 1279 AND KPER 2 TO BINARY FILE HEADS FROM KSTP 1 AND KPER 2

 SFR-1 SETTING BUDGET TERMS FOR KSTP 1279 AND KPER 2 TO BUDGET FILE TERMS FROM KSTP 1 AND KPER 2

end timestep


start timestep kper="2" kstp="1280" mode="normal"


 FMI SETTING BUDGET TERMS FOR KSTP 1280 AND KPER 2 TO BUDGET FILE TERMS FROM KSTP 1 AND KPER 2

 FMI SETTING HEAD FOR KSTP 1280 AND KPER 2 TO BINARY FILE HEADS FROM KSTP 1 AND KPER 2

 SFR-1 SETTING BUDGET TERMS FOR KSTP 1280 AND KPER 2 TO BUDGET FILE TERMS FROM KSTP 1 AND KPER 2

 CONCENTRATION WILL BE SAVED ON UNIT 1024 AT END OF TIME STEP 1280, STRESS PERIOD    2

end timestep


start timestep kper="2" kstp="1281" mode="normal"


 FMI SETTING BUDGET TERMS FOR KSTP 1281 AND KPER 2 TO BUDGET FILE TERMS FROM KSTP 1 AND KPER 2

 FMI SETTING HEAD FOR KSTP 1281 AND KPER 2 TO BINARY FILE HEADS FROM KSTP 1 AND KPER 2

 SFR-1 SETTING BUDGET TERMS FOR KSTP 1281 AND KPER 2 TO BUDGET FILE TERMS FROM KSTP 1 AND KPER 2

end timestep


start timestep kper="2" kstp="1282" mode="normal"


 FMI SETTING BUDGET TERMS FOR KSTP 1282 AND KPER 2 TO BUDGET FILE TERMS FROM KSTP 1 AND KPER 2

 FMI SETTING HEAD FOR KSTP 1282 AND KPER 2 TO BINARY FILE HEADS FROM KSTP 1 AND KPER 2

 SFR-1 SETTING BUDGET TERMS FOR KSTP 1282 AND KPER 2 TO BUDGET FILE TERMS FROM KSTP 1 AND KPER 2

end timestep


start timestep kper="2" kstp="1283" mode="normal"


 FMI SETTING BUDGET TERMS FOR KSTP 1283 AND KPER 2 TO BUDGET FILE TERMS FROM KSTP 1 AND KPER 2

 FMI SETTING HEAD FOR KSTP 1283 AND KPER 2 TO BINARY FILE HEADS FROM KSTP 1 AND KPER 2

 SFR-1 SETTING BUDGET TERMS FOR KSTP 1283 AND KPER 2 TO BUDGET FILE TERMS FROM KSTP 1 AND KPER 2

end timestep


start timestep kper="2" kstp="1284" mode="normal"


 FMI SETTING BUDGET TERMS FOR KSTP 1284 AND KPER 2 TO BUDGET FILE TERMS FROM KSTP 1 AND KPER 2

 FMI SETTING HEAD FOR KSTP 1284 AND KPER 2 TO BINARY FILE HEADS FROM KSTP 1 AND KPER 2

 SFR-1 SETTING BUDGET TERMS FOR KSTP 1284 AND KPER 2 TO BUDGET FILE TERMS FROM KSTP 1 AND KPER 2

end timestep


start timestep kper="2" kstp="1285" mode="normal"


 FMI SETTING BUDGET TERMS FOR KSTP 1285 AND KPER 2 TO BUDGET FILE TERMS FROM KSTP 1 AND KPER 2

 FMI SETTING HEAD FOR KSTP 1285 AND KPER 2 TO BINARY FILE HEADS FROM KSTP 1 AND KPER 2

 SFR-1 SETTING BUDGET TERMS FOR KSTP 1285 AND KPER 2 TO BUDGET FILE TERMS FROM KSTP 1 AND KPER 2

end timestep


start timestep kper="2" kstp="1286" mode="normal"


 FMI SETTING BUDGET TERMS FOR KSTP 1286 AND KPER 2 TO BUDGET FILE TERMS FROM KSTP 1 AND KPER 2

 FMI SETTING HEAD FOR KSTP 1286 AND KPER 2 TO BINARY FILE HEADS FROM KSTP 1 AND KPER 2

 SFR-1 SETTING BUDGET TERMS FOR KSTP 1286 AND KPER 2 TO BUDGET FILE TERMS FROM KSTP 1 AND KPER 2

end timestep


start timestep kper="2" kstp="1287" mode="normal"


 FMI SETTING BUDGET TERMS FOR KSTP 1287 AND KPER 2 TO BUDGET FILE TERMS FROM KSTP 1 AND KPER 2

 FMI SETTING HEAD FOR KSTP 1287 AND KPER 2 TO BINARY FILE HEADS FROM KSTP 1 AND KPER 2

 SFR-1 SETTING BUDGET TERMS FOR KSTP 1287 AND KPER 2 TO BUDGET FILE TERMS FROM KSTP 1 AND KPER 2

end timestep


start timestep kper="2" kstp="1288" mode="normal"


 FMI SETTING BUDGET TERMS FOR KSTP 1288 AND KPER 2 TO BUDGET FILE TERMS FROM KSTP 1 AND KPER 2

 FMI SETTING HEAD FOR KSTP 1288 AND KPER 2 TO BINARY FILE HEADS FROM KSTP 1 AND KPER 2

 SFR-1 SETTING BUDGET TERMS FOR KSTP 1288 AND KPER 2 TO BUDGET FILE TERMS FROM KSTP 1 AND KPER 2

end timestep


start timestep kper="2" kstp="1289" mode="normal"


 FMI SETTING BUDGET TERMS FOR KSTP 1289 AND KPER 2 TO BUDGET FILE TERMS FROM KSTP 1 AND KPER 2

 FMI SETTING HEAD FOR KSTP 1289 AND KPER 2 TO BINARY FILE HEADS FROM KSTP 1 AND KPER 2

 SFR-1 SETTING BUDGET TERMS FOR KSTP 1289 AND KPER 2 TO BUDGET FILE TERMS FROM KSTP 1 AND KPER 2

end timestep


start timestep kper="2" kstp="1290" mode="normal"


 FMI SETTING BUDGET TERMS FOR KSTP 1290 AND KPER 2 TO BUDGET FILE TERMS FROM KSTP 1 AND KPER 2

 FMI SETTING HEAD FOR KSTP 1290 AND KPER 2 TO BINARY FILE HEADS FROM KSTP 1 AND KPER 2

 SFR-1 SETTING BUDGET TERMS FOR KSTP 1290 AND KPER 2 TO BUDGET FILE TERMS FROM KSTP 1 AND KPER 2

 CONCENTRATION WILL BE SAVED ON UNIT 1024 AT END OF TIME STEP 1290, STRESS PERIOD    2

end timestep


start timestep kper="2" kstp="1291" mode="normal"


 FMI SETTING BUDGET TERMS FOR KSTP 1291 AND KPER 2 TO BUDGET FILE TERMS FROM KSTP 1 AND KPER 2

 FMI SETTING HEAD FOR KSTP 1291 AND KPER 2 TO BINARY FILE HEADS FROM KSTP 1 AND KPER 2

 SFR-1 SETTING BUDGET TERMS FOR KSTP 1291 AND KPER 2 TO BUDGET FILE TERMS FROM KSTP 1 AND KPER 2

end timestep


start timestep kper="2" kstp="1292" mode="normal"


 FMI SETTING BUDGET TERMS FOR KSTP 1292 AND KPER 2 TO BUDGET FILE TERMS FROM KSTP 1 AND KPER 2

 FMI SETTING HEAD FOR KSTP 1292 AND KPER 2 TO BINARY FILE HEADS FROM KSTP 1 AND KPER 2

 SFR-1 SETTING BUDGET TERMS FOR KSTP 1292 AND KPER 2 TO BUDGET FILE TERMS FROM KSTP 1 AND KPER 2

end timestep


start timestep kper="2" kstp="1293" mode="normal"


 FMI SETTING BUDGET TERMS FOR KSTP 1293 AND KPER 2 TO BUDGET FILE TERMS FROM KSTP 1 AND KPER 2

 FMI SETTING HEAD FOR KSTP 1293 AND KPER 2 TO BINARY FILE HEADS FROM KSTP 1 AND KPER 2

 SFR-1 SETTING BUDGET TERMS FOR KSTP 1293 AND KPER 2 TO BUDGET FILE TERMS FROM KSTP 1 AND KPER 2

end timestep


start timestep kper="2" kstp="1294" mode="normal"


 FMI SETTING BUDGET TERMS FOR KSTP 1294 AND KPER 2 TO BUDGET FILE TERMS FROM KSTP 1 AND KPER 2

 FMI SETTING HEAD FOR KSTP 1294 AND KPER 2 TO BINARY FILE HEADS FROM KSTP 1 AND KPER 2

 SFR-1 SETTING BUDGET TERMS FOR KSTP 1294 AND KPER 2 TO BUDGET FILE TERMS FROM KSTP 1 AND KPER 2

end timestep


start timestep kper="2" kstp="1295" mode="normal"


 FMI SETTING BUDGET TERMS FOR KSTP 1295 AND KPER 2 TO BUDGET FILE TERMS FROM KSTP 1 AND KPER 2

 FMI SETTING HEAD FOR KSTP 1295 AND KPER 2 TO BINARY FILE HEADS FROM KSTP 1 AND KPER 2

 SFR-1 SETTING BUDGET TERMS FOR KSTP 1295 AND KPER 2 TO BUDGET FILE TERMS FROM KSTP 1 AND KPER 2

end timestep


start timestep kper="2" kstp="1296" mode="normal"


 FMI SETTING BUDGET TERMS FOR KSTP 1296 AND KPER 2 TO BUDGET FILE TERMS FROM KSTP 1 AND KPER 2

 FMI SETTING HEAD FOR KSTP 1296 AND KPER 2 TO BINARY FILE HEADS FROM KSTP 1 AND KPER 2

 SFR-1 SETTING BUDGET TERMS FOR KSTP 1296 AND KPER 2 TO BUDGET FILE TERMS FROM KSTP 1 AND KPER 2

end timestep


start timestep kper="2" kstp="1297" mode="normal"


 FMI SETTING BUDGET TERMS FOR KSTP 1297 AND KPER 2 TO BUDGET FILE TERMS FROM KSTP 1 AND KPER 2

 FMI SETTING HEAD FOR KSTP 1297 AND KPER 2 TO BINARY FILE HEADS FROM KSTP 1 AND KPER 2

 SFR-1 SETTING BUDGET TERMS FOR KSTP 1297 AND KPER 2 TO BUDGET FILE TERMS FROM KSTP 1 AND KPER 2

end timestep


start timestep kper="2" kstp="1298" mode="normal"


 FMI SETTING BUDGET TERMS FOR KSTP 1298 AND KPER 2 TO BUDGET FILE TERMS FROM KSTP 1 AND KPER 2

 FMI SETTING HEAD FOR KSTP 1298 AND KPER 2 TO BINARY FILE HEADS FROM KSTP 1 AND KPER 2

 SFR-1 SETTING BUDGET TERMS FOR KSTP 1298 AND KPER 2 TO BUDGET FILE TERMS FROM KSTP 1 AND KPER 2

end timestep


start timestep kper="2" kstp="1299" mode="normal"


 FMI SETTING BUDGET TERMS FOR KSTP 1299 AND KPER 2 TO BUDGET FILE TERMS FROM KSTP 1 AND KPER 2

 FMI SETTING HEAD FOR KSTP 1299 AND KPER 2 TO BINARY FILE HEADS FROM KSTP 1 AND KPER 2

 SFR-1 SETTING BUDGET TERMS FOR KSTP 1299 AND KPER 2 TO BUDGET FILE TERMS FROM KSTP 1 AND KPER 2

end timestep


start timestep kper="2" kstp="1300" mode="normal"


 FMI SETTING BUDGET TERMS FOR KSTP 1300 AND KPER 2 TO BUDGET FILE TERMS FROM KSTP 1 AND KPER 2

 FMI SETTING HEAD FOR KSTP 1300 AND KPER 2 TO BINARY FILE HEADS FROM KSTP 1 AND KPER 2

 SFR-1 SETTING BUDGET TERMS FOR KSTP 1300 AND KPER 2 TO BUDGET FILE TERMS FROM KSTP 1 AND KPER 2

 CONCENTRATION WILL BE SAVED ON UNIT 1024 AT END OF TIME STEP 1300, STRESS PERIOD    2

end timestep


start timestep kper="2" kstp="1301" mode="normal"


 FMI SETTING BUDGET TERMS FOR KSTP 1301 AND KPER 2 TO BUDGET FILE TERMS FROM KSTP 1 AND KPER 2

 FMI SETTING HEAD FOR KSTP 1301 AND KPER 2 TO BINARY FILE HEADS FROM KSTP 1 AND KPER 2

 SFR-1 SETTING BUDGET TERMS FOR KSTP 1301 AND KPER 2 TO BUDGET FILE TERMS FROM KSTP 1 AND KPER 2

end timestep


start timestep kper="2" kstp="1302" mode="normal"


 FMI SETTING BUDGET TERMS FOR KSTP 1302 AND KPER 2 TO BUDGET FILE TERMS FROM KSTP 1 AND KPER 2

 FMI SETTING HEAD FOR KSTP 1302 AND KPER 2 TO BINARY FILE HEADS FROM KSTP 1 AND KPER 2

 SFR-1 SETTING BUDGET TERMS FOR KSTP 1302 AND KPER 2 TO BUDGET FILE TERMS FROM KSTP 1 AND KPER 2

end timestep


start timestep kper="2" kstp="1303" mode="normal"


 FMI SETTING BUDGET TERMS FOR KSTP 1303 AND KPER 2 TO BUDGET FILE TERMS FROM KSTP 1 AND KPER 2

 FMI SETTING HEAD FOR KSTP 1303 AND KPER 2 TO BINARY FILE HEADS FROM KSTP 1 AND KPER 2

 SFR-1 SETTING BUDGET TERMS FOR KSTP 1303 AND KPER 2 TO BUDGET FILE TERMS FROM KSTP 1 AND KPER 2

end timestep


start timestep kper="2" kstp="1304" mode="normal"


 FMI SETTING BUDGET TERMS FOR KSTP 1304 AND KPER 2 TO BUDGET FILE TERMS FROM KSTP 1 AND KPER 2

 FMI SETTING HEAD FOR KSTP 1304 AND KPER 2 TO BINARY FILE HEADS FROM KSTP 1 AND KPER 2

 SFR-1 SETTING BUDGET TERMS FOR KSTP 1304 AND KPER 2 TO BUDGET FILE TERMS FROM KSTP 1 AND KPER 2

end timestep


start timestep kper="2" kstp="1305" mode="normal"


 FMI SETTING BUDGET TERMS FOR KSTP 1305 AND KPER 2 TO BUDGET FILE TERMS FROM KSTP 1 AND KPER 2

 FMI SETTING HEAD FOR KSTP 1305 AND KPER 2 TO BINARY FILE HEADS FROM KSTP 1 AND KPER 2

 SFR-1 SETTING BUDGET TERMS FOR KSTP 1305 AND KPER 2 TO BUDGET FILE TERMS FROM KSTP 1 AND KPER 2

end timestep


start timestep kper="2" kstp="1306" mode="normal"


 FMI SETTING BUDGET TERMS FOR KSTP 1306 AND KPER 2 TO BUDGET FILE TERMS FROM KSTP 1 AND KPER 2

 FMI SETTING HEAD FOR KSTP 1306 AND KPER 2 TO BINARY FILE HEADS FROM KSTP 1 AND KPER 2

 SFR-1 SETTING BUDGET TERMS FOR KSTP 1306 AND KPER 2 TO BUDGET FILE TERMS FROM KSTP 1 AND KPER 2

end timestep


start timestep kper="2" kstp="1307" mode="normal"


 FMI SETTING BUDGET TERMS FOR KSTP 1307 AND KPER 2 TO BUDGET FILE TERMS FROM KSTP 1 AND KPER 2

 FMI SETTING HEAD FOR KSTP 1307 AND KPER 2 TO BINARY FILE HEADS FROM KSTP 1 AND KPER 2

 SFR-1 SETTING BUDGET TERMS FOR KSTP 1307 AND KPER 2 TO BUDGET FILE TERMS FROM KSTP 1 AND KPER 2

end timestep


start timestep kper="2" kstp="1308" mode="normal"


 FMI SETTING BUDGET TERMS FOR KSTP 1308 AND KPER 2 TO BUDGET FILE TERMS FROM KSTP 1 AND KPER 2

 FMI SETTING HEAD FOR KSTP 1308 AND KPER 2 TO BINARY FILE HEADS FROM KSTP 1 AND KPER 2

 SFR-1 SETTING BUDGET TERMS FOR KSTP 1308 AND KPER 2 TO BUDGET FILE TERMS FROM KSTP 1 AND KPER 2

end timestep


start timestep kper="2" kstp="1309" mode="normal"


 FMI SETTING BUDGET TERMS FOR KSTP 1309 AND KPER 2 TO BUDGET FILE TERMS FROM KSTP 1 AND KPER 2

 FMI SETTING HEAD FOR KSTP 1309 AND KPER 2 TO BINARY FILE HEADS FROM KSTP 1 AND KPER 2

 SFR-1 SETTING BUDGET TERMS FOR KSTP 1309 AND KPER 2 TO BUDGET FILE TERMS FROM KSTP 1 AND KPER 2

end timestep


start timestep kper="2" kstp="1310" mode="normal"


 FMI SETTING BUDGET TERMS FOR KSTP 1310 AND KPER 2 TO BUDGET FILE TERMS FROM KSTP 1 AND KPER 2

 FMI SETTING HEAD FOR KSTP 1310 AND KPER 2 TO BINARY FILE HEADS FROM KSTP 1 AND KPER 2

 SFR-1 SETTING BUDGET TERMS FOR KSTP 1310 AND KPER 2 TO BUDGET FILE TERMS FROM KSTP 1 AND KPER 2

 CONCENTRATION WILL BE SAVED ON UNIT 1024 AT END OF TIME STEP 1310, STRESS PERIOD    2

end timestep


start timestep kper="2" kstp="1311" mode="normal"


 FMI SETTING BUDGET TERMS FOR KSTP 1311 AND KPER 2 TO BUDGET FILE TERMS FROM KSTP 1 AND KPER 2

 FMI SETTING HEAD FOR KSTP 1311 AND KPER 2 TO BINARY FILE HEADS FROM KSTP 1 AND KPER 2

 SFR-1 SETTING BUDGET TERMS FOR KSTP 1311 AND KPER 2 TO BUDGET FILE TERMS FROM KSTP 1 AND KPER 2

end timestep


start timestep kper="2" kstp="1312" mode="normal"


 FMI SETTING BUDGET TERMS FOR KSTP 1312 AND KPER 2 TO BUDGET FILE TERMS FROM KSTP 1 AND KPER 2

 FMI SETTING HEAD FOR KSTP 1312 AND KPER 2 TO BINARY FILE HEADS FROM KSTP 1 AND KPER 2

 SFR-1 SETTING BUDGET TERMS FOR KSTP 1312 AND KPER 2 TO BUDGET FILE TERMS FROM KSTP 1 AND KPER 2

end timestep


start timestep kper="2" kstp="1313" mode="normal"


 FMI SETTING BUDGET TERMS FOR KSTP 1313 AND KPER 2 TO BUDGET FILE TERMS FROM KSTP 1 AND KPER 2

 FMI SETTING HEAD FOR KSTP 1313 AND KPER 2 TO BINARY FILE HEADS FROM KSTP 1 AND KPER 2

 SFR-1 SETTING BUDGET TERMS FOR KSTP 1313 AND KPER 2 TO BUDGET FILE TERMS FROM KSTP 1 AND KPER 2

end timestep


start timestep kper="2" kstp="1314" mode="normal"


 FMI SETTING BUDGET TERMS FOR KSTP 1314 AND KPER 2 TO BUDGET FILE TERMS FROM KSTP 1 AND KPER 2

 FMI SETTING HEAD FOR KSTP 1314 AND KPER 2 TO BINARY FILE HEADS FROM KSTP 1 AND KPER 2

 SFR-1 SETTING BUDGET TERMS FOR KSTP 1314 AND KPER 2 TO BUDGET FILE TERMS FROM KSTP 1 AND KPER 2

end timestep


start timestep kper="2" kstp="1315" mode="normal"


 FMI SETTING BUDGET TERMS FOR KSTP 1315 AND KPER 2 TO BUDGET FILE TERMS FROM KSTP 1 AND KPER 2

 FMI SETTING HEAD FOR KSTP 1315 AND KPER 2 TO BINARY FILE HEADS FROM KSTP 1 AND KPER 2

 SFR-1 SETTING BUDGET TERMS FOR KSTP 1315 AND KPER 2 TO BUDGET FILE TERMS FROM KSTP 1 AND KPER 2

end timestep


start timestep kper="2" kstp="1316" mode="normal"


 FMI SETTING BUDGET TERMS FOR KSTP 1316 AND KPER 2 TO BUDGET FILE TERMS FROM KSTP 1 AND KPER 2

 FMI SETTING HEAD FOR KSTP 1316 AND KPER 2 TO BINARY FILE HEADS FROM KSTP 1 AND KPER 2

 SFR-1 SETTING BUDGET TERMS FOR KSTP 1316 AND KPER 2 TO BUDGET FILE TERMS FROM KSTP 1 AND KPER 2

end timestep


start timestep kper="2" kstp="1317" mode="normal"


 FMI SETTING BUDGET TERMS FOR KSTP 1317 AND KPER 2 TO BUDGET FILE TERMS FROM KSTP 1 AND KPER 2

 FMI SETTING HEAD FOR KSTP 1317 AND KPER 2 TO BINARY FILE HEADS FROM KSTP 1 AND KPER 2

 SFR-1 SETTING BUDGET TERMS FOR KSTP 1317 AND KPER 2 TO BUDGET FILE TERMS FROM KSTP 1 AND KPER 2

end timestep


start timestep kper="2" kstp="1318" mode="normal"


 FMI SETTING BUDGET TERMS FOR KSTP 1318 AND KPER 2 TO BUDGET FILE TERMS FROM KSTP 1 AND KPER 2

 FMI SETTING HEAD FOR KSTP 1318 AND KPER 2 TO BINARY FILE HEADS FROM KSTP 1 AND KPER 2

 SFR-1 SETTING BUDGET TERMS FOR KSTP 1318 AND KPER 2 TO BUDGET FILE TERMS FROM KSTP 1 AND KPER 2

end timestep


start timestep kper="2" kstp="1319" mode="normal"


 FMI SETTING BUDGET TERMS FOR KSTP 1319 AND KPER 2 TO BUDGET FILE TERMS FROM KSTP 1 AND KPER 2

 FMI SETTING HEAD FOR KSTP 1319 AND KPER 2 TO BINARY FILE HEADS FROM KSTP 1 AND KPER 2

 SFR-1 SETTING BUDGET TERMS FOR KSTP 1319 AND KPER 2 TO BUDGET FILE TERMS FROM KSTP 1 AND KPER 2

end timestep


start timestep kper="2" kstp="1320" mode="normal"


 FMI SETTING BUDGET TERMS FOR KSTP 1320 AND KPER 2 TO BUDGET FILE TERMS FROM KSTP 1 AND KPER 2

 FMI SETTING HEAD FOR KSTP 1320 AND KPER 2 TO BINARY FILE HEADS FROM KSTP 1 AND KPER 2

 SFR-1 SETTING BUDGET TERMS FOR KSTP 1320 AND KPER 2 TO BUDGET FILE TERMS FROM KSTP 1 AND KPER 2

 CONCENTRATION WILL BE SAVED ON UNIT 1024 AT END OF TIME STEP 1320, STRESS PERIOD    2

end timestep


start timestep kper="2" kstp="1321" mode="normal"


 FMI SETTING BUDGET TERMS FOR KSTP 1321 AND KPER 2 TO BUDGET FILE TERMS FROM KSTP 1 AND KPER 2

 FMI SETTING HEAD FOR KSTP 1321 AND KPER 2 TO BINARY FILE HEADS FROM KSTP 1 AND KPER 2

 SFR-1 SETTING BUDGET TERMS FOR KSTP 1321 AND KPER 2 TO BUDGET FILE TERMS FROM KSTP 1 AND KPER 2

end timestep


start timestep kper="2" kstp="1322" mode="normal"


 FMI SETTING BUDGET TERMS FOR KSTP 1322 AND KPER 2 TO BUDGET FILE TERMS FROM KSTP 1 AND KPER 2

 FMI SETTING HEAD FOR KSTP 1322 AND KPER 2 TO BINARY FILE HEADS FROM KSTP 1 AND KPER 2

 SFR-1 SETTING BUDGET TERMS FOR KSTP 1322 AND KPER 2 TO BUDGET FILE TERMS FROM KSTP 1 AND KPER 2

end timestep


start timestep kper="2" kstp="1323" mode="normal"


 FMI SETTING BUDGET TERMS FOR KSTP 1323 AND KPER 2 TO BUDGET FILE TERMS FROM KSTP 1 AND KPER 2

 FMI SETTING HEAD FOR KSTP 1323 AND KPER 2 TO BINARY FILE HEADS FROM KSTP 1 AND KPER 2

 SFR-1 SETTING BUDGET TERMS FOR KSTP 1323 AND KPER 2 TO BUDGET FILE TERMS FROM KSTP 1 AND KPER 2

end timestep


start timestep kper="2" kstp="1324" mode="normal"


 FMI SETTING BUDGET TERMS FOR KSTP 1324 AND KPER 2 TO BUDGET FILE TERMS FROM KSTP 1 AND KPER 2

 FMI SETTING HEAD FOR KSTP 1324 AND KPER 2 TO BINARY FILE HEADS FROM KSTP 1 AND KPER 2

 SFR-1 SETTING BUDGET TERMS FOR KSTP 1324 AND KPER 2 TO BUDGET FILE TERMS FROM KSTP 1 AND KPER 2

end timestep


start timestep kper="2" kstp="1325" mode="normal"


 FMI SETTING BUDGET TERMS FOR KSTP 1325 AND KPER 2 TO BUDGET FILE TERMS FROM KSTP 1 AND KPER 2

 FMI SETTING HEAD FOR KSTP 1325 AND KPER 2 TO BINARY FILE HEADS FROM KSTP 1 AND KPER 2

 SFR-1 SETTING BUDGET TERMS FOR KSTP 1325 AND KPER 2 TO BUDGET FILE TERMS FROM KSTP 1 AND KPER 2

end timestep


start timestep kper="2" kstp="1326" mode="normal"


 FMI SETTING BUDGET TERMS FOR KSTP 1326 AND KPER 2 TO BUDGET FILE TERMS FROM KSTP 1 AND KPER 2

 FMI SETTING HEAD FOR KSTP 1326 AND KPER 2 TO BINARY FILE HEADS FROM KSTP 1 AND KPER 2

 SFR-1 SETTING BUDGET TERMS FOR KSTP 1326 AND KPER 2 TO BUDGET FILE TERMS FROM KSTP 1 AND KPER 2

end timestep


start timestep kper="2" kstp="1327" mode="normal"


 FMI SETTING BUDGET TERMS FOR KSTP 1327 AND KPER 2 TO BUDGET FILE TERMS FROM KSTP 1 AND KPER 2

 FMI SETTING HEAD FOR KSTP 1327 AND KPER 2 TO BINARY FILE HEADS FROM KSTP 1 AND KPER 2

 SFR-1 SETTING BUDGET TERMS FOR KSTP 1327 AND KPER 2 TO BUDGET FILE TERMS FROM KSTP 1 AND KPER 2

end timestep


start timestep kper="2" kstp="1328" mode="normal"


 FMI SETTING BUDGET TERMS FOR KSTP 1328 AND KPER 2 TO BUDGET FILE TERMS FROM KSTP 1 AND KPER 2

 FMI SETTING HEAD FOR KSTP 1328 AND KPER 2 TO BINARY FILE HEADS FROM KSTP 1 AND KPER 2

 SFR-1 SETTING BUDGET TERMS FOR KSTP 1328 AND KPER 2 TO BUDGET FILE TERMS FROM KSTP 1 AND KPER 2

end timestep


start timestep kper="2" kstp="1329" mode="normal"


 FMI SETTING BUDGET TERMS FOR KSTP 1329 AND KPER 2 TO BUDGET FILE TERMS FROM KSTP 1 AND KPER 2

 FMI SETTING HEAD FOR KSTP 1329 AND KPER 2 TO BINARY FILE HEADS FROM KSTP 1 AND KPER 2

 SFR-1 SETTING BUDGET TERMS FOR KSTP 1329 AND KPER 2 TO BUDGET FILE TERMS FROM KSTP 1 AND KPER 2

end timestep


start timestep kper="2" kstp="1330" mode="normal"


 FMI SETTING BUDGET TERMS FOR KSTP 1330 AND KPER 2 TO BUDGET FILE TERMS FROM KSTP 1 AND KPER 2

 FMI SETTING HEAD FOR KSTP 1330 AND KPER 2 TO BINARY FILE HEADS FROM KSTP 1 AND KPER 2

 SFR-1 SETTING BUDGET TERMS FOR KSTP 1330 AND KPER 2 TO BUDGET FILE TERMS FROM KSTP 1 AND KPER 2

 CONCENTRATION WILL BE SAVED ON UNIT 1024 AT END OF TIME STEP 1330, STRESS PERIOD    2

end timestep


start timestep kper="2" kstp="1331" mode="normal"


 FMI SETTING BUDGET TERMS FOR KSTP 1331 AND KPER 2 TO BUDGET FILE TERMS FROM KSTP 1 AND KPER 2

 FMI SETTING HEAD FOR KSTP 1331 AND KPER 2 TO BINARY FILE HEADS FROM KSTP 1 AND KPER 2

 SFR-1 SETTING BUDGET TERMS FOR KSTP 1331 AND KPER 2 TO BUDGET FILE TERMS FROM KSTP 1 AND KPER 2

end timestep


start timestep kper="2" kstp="1332" mode="normal"


 FMI SETTING BUDGET TERMS FOR KSTP 1332 AND KPER 2 TO BUDGET FILE TERMS FROM KSTP 1 AND KPER 2

 FMI SETTING HEAD FOR KSTP 1332 AND KPER 2 TO BINARY FILE HEADS FROM KSTP 1 AND KPER 2

 SFR-1 SETTING BUDGET TERMS FOR KSTP 1332 AND KPER 2 TO BUDGET FILE TERMS FROM KSTP 1 AND KPER 2

end timestep


start timestep kper="2" kstp="1333" mode="normal"


 FMI SETTING BUDGET TERMS FOR KSTP 1333 AND KPER 2 TO BUDGET FILE TERMS FROM KSTP 1 AND KPER 2

 FMI SETTING HEAD FOR KSTP 1333 AND KPER 2 TO BINARY FILE HEADS FROM KSTP 1 AND KPER 2

 SFR-1 SETTING BUDGET TERMS FOR KSTP 1333 AND KPER 2 TO BUDGET FILE TERMS FROM KSTP 1 AND KPER 2

end timestep


start timestep kper="2" kstp="1334" mode="normal"


 FMI SETTING BUDGET TERMS FOR KSTP 1334 AND KPER 2 TO BUDGET FILE TERMS FROM KSTP 1 AND KPER 2

 FMI SETTING HEAD FOR KSTP 1334 AND KPER 2 TO BINARY FILE HEADS FROM KSTP 1 AND KPER 2

 SFR-1 SETTING BUDGET TERMS FOR KSTP 1334 AND KPER 2 TO BUDGET FILE TERMS FROM KSTP 1 AND KPER 2

end timestep


start timestep kper="2" kstp="1335" mode="normal"


 FMI SETTING BUDGET TERMS FOR KSTP 1335 AND KPER 2 TO BUDGET FILE TERMS FROM KSTP 1 AND KPER 2

 FMI SETTING HEAD FOR KSTP 1335 AND KPER 2 TO BINARY FILE HEADS FROM KSTP 1 AND KPER 2

 SFR-1 SETTING BUDGET TERMS FOR KSTP 1335 AND KPER 2 TO BUDGET FILE TERMS FROM KSTP 1 AND KPER 2

end timestep


start timestep kper="2" kstp="1336" mode="normal"


 FMI SETTING BUDGET TERMS FOR KSTP 1336 AND KPER 2 TO BUDGET FILE TERMS FROM KSTP 1 AND KPER 2

 FMI SETTING HEAD FOR KSTP 1336 AND KPER 2 TO BINARY FILE HEADS FROM KSTP 1 AND KPER 2

 SFR-1 SETTING BUDGET TERMS FOR KSTP 1336 AND KPER 2 TO BUDGET FILE TERMS FROM KSTP 1 AND KPER 2

end timestep


start timestep kper="2" kstp="1337" mode="normal"


 FMI SETTING BUDGET TERMS FOR KSTP 1337 AND KPER 2 TO BUDGET FILE TERMS FROM KSTP 1 AND KPER 2

 FMI SETTING HEAD FOR KSTP 1337 AND KPER 2 TO BINARY FILE HEADS FROM KSTP 1 AND KPER 2

 SFR-1 SETTING BUDGET TERMS FOR KSTP 1337 AND KPER 2 TO BUDGET FILE TERMS FROM KSTP 1 AND KPER 2

end timestep


start timestep kper="2" kstp="1338" mode="normal"


 FMI SETTING BUDGET TERMS FOR KSTP 1338 AND KPER 2 TO BUDGET FILE TERMS FROM KSTP 1 AND KPER 2

 FMI SETTING HEAD FOR KSTP 1338 AND KPER 2 TO BINARY FILE HEADS FROM KSTP 1 AND KPER 2

 SFR-1 SETTING BUDGET TERMS FOR KSTP 1338 AND KPER 2 TO BUDGET FILE TERMS FROM KSTP 1 AND KPER 2

end timestep


start timestep kper="2" kstp="1339" mode="normal"


 FMI SETTING BUDGET TERMS FOR KSTP 1339 AND KPER 2 TO BUDGET FILE TERMS FROM KSTP 1 AND KPER 2

 FMI SETTING HEAD FOR KSTP 1339 AND KPER 2 TO BINARY FILE HEADS FROM KSTP 1 AND KPER 2

 SFR-1 SETTING BUDGET TERMS FOR KSTP 1339 AND KPER 2 TO BUDGET FILE TERMS FROM KSTP 1 AND KPER 2

end timestep


start timestep kper="2" kstp="1340" mode="normal"


 FMI SETTING BUDGET TERMS FOR KSTP 1340 AND KPER 2 TO BUDGET FILE TERMS FROM KSTP 1 AND KPER 2

 FMI SETTING HEAD FOR KSTP 1340 AND KPER 2 TO BINARY FILE HEADS FROM KSTP 1 AND KPER 2

 SFR-1 SETTING BUDGET TERMS FOR KSTP 1340 AND KPER 2 TO BUDGET FILE TERMS FROM KSTP 1 AND KPER 2

 CONCENTRATION WILL BE SAVED ON UNIT 1024 AT END OF TIME STEP 1340, STRESS PERIOD    2

end timestep


start timestep kper="2" kstp="1341" mode="normal"


 FMI SETTING BUDGET TERMS FOR KSTP 1341 AND KPER 2 TO BUDGET FILE TERMS FROM KSTP 1 AND KPER 2

 FMI SETTING HEAD FOR KSTP 1341 AND KPER 2 TO BINARY FILE HEADS FROM KSTP 1 AND KPER 2

 SFR-1 SETTING BUDGET TERMS FOR KSTP 1341 AND KPER 2 TO BUDGET FILE TERMS FROM KSTP 1 AND KPER 2

end timestep


start timestep kper="2" kstp="1342" mode="normal"


 FMI SETTING BUDGET TERMS FOR KSTP 1342 AND KPER 2 TO BUDGET FILE TERMS FROM KSTP 1 AND KPER 2

 FMI SETTING HEAD FOR KSTP 1342 AND KPER 2 TO BINARY FILE HEADS FROM KSTP 1 AND KPER 2

 SFR-1 SETTING BUDGET TERMS FOR KSTP 1342 AND KPER 2 TO BUDGET FILE TERMS FROM KSTP 1 AND KPER 2

end timestep


start timestep kper="2" kstp="1343" mode="normal"


 FMI SETTING BUDGET TERMS FOR KSTP 1343 AND KPER 2 TO BUDGET FILE TERMS FROM KSTP 1 AND KPER 2

 FMI SETTING HEAD FOR KSTP 1343 AND KPER 2 TO BINARY FILE HEADS FROM KSTP 1 AND KPER 2

 SFR-1 SETTING BUDGET TERMS FOR KSTP 1343 AND KPER 2 TO BUDGET FILE TERMS FROM KSTP 1 AND KPER 2

end timestep


start timestep kper="2" kstp="1344" mode="normal"


 FMI SETTING BUDGET TERMS FOR KSTP 1344 AND KPER 2 TO BUDGET FILE TERMS FROM KSTP 1 AND KPER 2

 FMI SETTING HEAD FOR KSTP 1344 AND KPER 2 TO BINARY FILE HEADS FROM KSTP 1 AND KPER 2

 SFR-1 SETTING BUDGET TERMS FOR KSTP 1344 AND KPER 2 TO BUDGET FILE TERMS FROM KSTP 1 AND KPER 2

end timestep


start timestep kper="2" kstp="1345" mode="normal"


 FMI SETTING BUDGET TERMS FOR KSTP 1345 AND KPER 2 TO BUDGET FILE TERMS FROM KSTP 1 AND KPER 2

 FMI SETTING HEAD FOR KSTP 1345 AND KPER 2 TO BINARY FILE HEADS FROM KSTP 1 AND KPER 2

 SFR-1 SETTING BUDGET TERMS FOR KSTP 1345 AND KPER 2 TO BUDGET FILE TERMS FROM KSTP 1 AND KPER 2

end timestep


start timestep kper="2" kstp="1346" mode="normal"


 FMI SETTING BUDGET TERMS FOR KSTP 1346 AND KPER 2 TO BUDGET FILE TERMS FROM KSTP 1 AND KPER 2

 FMI SETTING HEAD FOR KSTP 1346 AND KPER 2 TO BINARY FILE HEADS FROM KSTP 1 AND KPER 2

 SFR-1 SETTING BUDGET TERMS FOR KSTP 1346 AND KPER 2 TO BUDGET FILE TERMS FROM KSTP 1 AND KPER 2

end timestep


start timestep kper="2" kstp="1347" mode="normal"


 FMI SETTING BUDGET TERMS FOR KSTP 1347 AND KPER 2 TO BUDGET FILE TERMS FROM KSTP 1 AND KPER 2

 FMI SETTING HEAD FOR KSTP 1347 AND KPER 2 TO BINARY FILE HEADS FROM KSTP 1 AND KPER 2

 SFR-1 SETTING BUDGET TERMS FOR KSTP 1347 AND KPER 2 TO BUDGET FILE TERMS FROM KSTP 1 AND KPER 2

end timestep


start timestep kper="2" kstp="1348" mode="normal"


 FMI SETTING BUDGET TERMS FOR KSTP 1348 AND KPER 2 TO BUDGET FILE TERMS FROM KSTP 1 AND KPER 2

 FMI SETTING HEAD FOR KSTP 1348 AND KPER 2 TO BINARY FILE HEADS FROM KSTP 1 AND KPER 2

 SFR-1 SETTING BUDGET TERMS FOR KSTP 1348 AND KPER 2 TO BUDGET FILE TERMS FROM KSTP 1 AND KPER 2

end timestep


start timestep kper="2" kstp="1349" mode="normal"


 FMI SETTING BUDGET TERMS FOR KSTP 1349 AND KPER 2 TO BUDGET FILE TERMS FROM KSTP 1 AND KPER 2

 FMI SETTING HEAD FOR KSTP 1349 AND KPER 2 TO BINARY FILE HEADS FROM KSTP 1 AND KPER 2

 SFR-1 SETTING BUDGET TERMS FOR KSTP 1349 AND KPER 2 TO BUDGET FILE TERMS FROM KSTP 1 AND KPER 2

end timestep


start timestep kper="2" kstp="1350" mode="normal"


 FMI SETTING BUDGET TERMS FOR KSTP 1350 AND KPER 2 TO BUDGET FILE TERMS FROM KSTP 1 AND KPER 2

 FMI SETTING HEAD FOR KSTP 1350 AND KPER 2 TO BINARY FILE HEADS FROM KSTP 1 AND KPER 2

 SFR-1 SETTING BUDGET TERMS FOR KSTP 1350 AND KPER 2 TO BUDGET FILE TERMS FROM KSTP 1 AND KPER 2

 CONCENTRATION WILL BE SAVED ON UNIT 1024 AT END OF TIME STEP 1350, STRESS PERIOD    2

end timestep


start timestep kper="2" kstp="1351" mode="normal"


 FMI SETTING BUDGET TERMS FOR KSTP 1351 AND KPER 2 TO BUDGET FILE TERMS FROM KSTP 1 AND KPER 2

 FMI SETTING HEAD FOR KSTP 1351 AND KPER 2 TO BINARY FILE HEADS FROM KSTP 1 AND KPER 2

 SFR-1 SETTING BUDGET TERMS FOR KSTP 1351 AND KPER 2 TO BUDGET FILE TERMS FROM KSTP 1 AND KPER 2

end timestep


start timestep kper="2" kstp="1352" mode="normal"


 FMI SETTING BUDGET TERMS FOR KSTP 1352 AND KPER 2 TO BUDGET FILE TERMS FROM KSTP 1 AND KPER 2

 FMI SETTING HEAD FOR KSTP 1352 AND KPER 2 TO BINARY FILE HEADS FROM KSTP 1 AND KPER 2

 SFR-1 SETTING BUDGET TERMS FOR KSTP 1352 AND KPER 2 TO BUDGET FILE TERMS FROM KSTP 1 AND KPER 2

end timestep


start timestep kper="2" kstp="1353" mode="normal"


 FMI SETTING BUDGET TERMS FOR KSTP 1353 AND KPER 2 TO BUDGET FILE TERMS FROM KSTP 1 AND KPER 2

 FMI SETTING HEAD FOR KSTP 1353 AND KPER 2 TO BINARY FILE HEADS FROM KSTP 1 AND KPER 2

 SFR-1 SETTING BUDGET TERMS FOR KSTP 1353 AND KPER 2 TO BUDGET FILE TERMS FROM KSTP 1 AND KPER 2

end timestep


start timestep kper="2" kstp="1354" mode="normal"


 FMI SETTING BUDGET TERMS FOR KSTP 1354 AND KPER 2 TO BUDGET FILE TERMS FROM KSTP 1 AND KPER 2

 FMI SETTING HEAD FOR KSTP 1354 AND KPER 2 TO BINARY FILE HEADS FROM KSTP 1 AND KPER 2

 SFR-1 SETTING BUDGET TERMS FOR KSTP 1354 AND KPER 2 TO BUDGET FILE TERMS FROM KSTP 1 AND KPER 2

end timestep


start timestep kper="2" kstp="1355" mode="normal"


 FMI SETTING BUDGET TERMS FOR KSTP 1355 AND KPER 2 TO BUDGET FILE TERMS FROM KSTP 1 AND KPER 2

 FMI SETTING HEAD FOR KSTP 1355 AND KPER 2 TO BINARY FILE HEADS FROM KSTP 1 AND KPER 2

 SFR-1 SETTING BUDGET TERMS FOR KSTP 1355 AND KPER 2 TO BUDGET FILE TERMS FROM KSTP 1 AND KPER 2

end timestep


start timestep kper="2" kstp="1356" mode="normal"


 FMI SETTING BUDGET TERMS FOR KSTP 1356 AND KPER 2 TO BUDGET FILE TERMS FROM KSTP 1 AND KPER 2

 FMI SETTING HEAD FOR KSTP 1356 AND KPER 2 TO BINARY FILE HEADS FROM KSTP 1 AND KPER 2

 SFR-1 SETTING BUDGET TERMS FOR KSTP 1356 AND KPER 2 TO BUDGET FILE TERMS FROM KSTP 1 AND KPER 2

end timestep


start timestep kper="2" kstp="1357" mode="normal"


 FMI SETTING BUDGET TERMS FOR KSTP 1357 AND KPER 2 TO BUDGET FILE TERMS FROM KSTP 1 AND KPER 2

 FMI SETTING HEAD FOR KSTP 1357 AND KPER 2 TO BINARY FILE HEADS FROM KSTP 1 AND KPER 2

 SFR-1 SETTING BUDGET TERMS FOR KSTP 1357 AND KPER 2 TO BUDGET FILE TERMS FROM KSTP 1 AND KPER 2

end timestep


start timestep kper="2" kstp="1358" mode="normal"


 FMI SETTING BUDGET TERMS FOR KSTP 1358 AND KPER 2 TO BUDGET FILE TERMS FROM KSTP 1 AND KPER 2

 FMI SETTING HEAD FOR KSTP 1358 AND KPER 2 TO BINARY FILE HEADS FROM KSTP 1 AND KPER 2

 SFR-1 SETTING BUDGET TERMS FOR KSTP 1358 AND KPER 2 TO BUDGET FILE TERMS FROM KSTP 1 AND KPER 2

end timestep


start timestep kper="2" kstp="1359" mode="normal"


 FMI SETTING BUDGET TERMS FOR KSTP 1359 AND KPER 2 TO BUDGET FILE TERMS FROM KSTP 1 AND KPER 2

 FMI SETTING HEAD FOR KSTP 1359 AND KPER 2 TO BINARY FILE HEADS FROM KSTP 1 AND KPER 2

 SFR-1 SETTING BUDGET TERMS FOR KSTP 1359 AND KPER 2 TO BUDGET FILE TERMS FROM KSTP 1 AND KPER 2

end timestep


start timestep kper="2" kstp="1360" mode="normal"


 FMI SETTING BUDGET TERMS FOR KSTP 1360 AND KPER 2 TO BUDGET FILE TERMS FROM KSTP 1 AND KPER 2

 FMI SETTING HEAD FOR KSTP 1360 AND KPER 2 TO BINARY FILE HEADS FROM KSTP 1 AND KPER 2

 SFR-1 SETTING BUDGET TERMS FOR KSTP 1360 AND KPER 2 TO BUDGET FILE TERMS FROM KSTP 1 AND KPER 2

 CONCENTRATION WILL BE SAVED ON UNIT 1024 AT END OF TIME STEP 1360, STRESS PERIOD    2

end timestep


start timestep kper="2" kstp="1361" mode="normal"


 FMI SETTING BUDGET TERMS FOR KSTP 1361 AND KPER 2 TO BUDGET FILE TERMS FROM KSTP 1 AND KPER 2

 FMI SETTING HEAD FOR KSTP 1361 AND KPER 2 TO BINARY FILE HEADS FROM KSTP 1 AND KPER 2

 SFR-1 SETTING BUDGET TERMS FOR KSTP 1361 AND KPER 2 TO BUDGET FILE TERMS FROM KSTP 1 AND KPER 2

end timestep


start timestep kper="2" kstp="1362" mode="normal"


 FMI SETTING BUDGET TERMS FOR KSTP 1362 AND KPER 2 TO BUDGET FILE TERMS FROM KSTP 1 AND KPER 2

 FMI SETTING HEAD FOR KSTP 1362 AND KPER 2 TO BINARY FILE HEADS FROM KSTP 1 AND KPER 2

 SFR-1 SETTING BUDGET TERMS FOR KSTP 1362 AND KPER 2 TO BUDGET FILE TERMS FROM KSTP 1 AND KPER 2

end timestep


start timestep kper="2" kstp="1363" mode="normal"


 FMI SETTING BUDGET TERMS FOR KSTP 1363 AND KPER 2 TO BUDGET FILE TERMS FROM KSTP 1 AND KPER 2

 FMI SETTING HEAD FOR KSTP 1363 AND KPER 2 TO BINARY FILE HEADS FROM KSTP 1 AND KPER 2

 SFR-1 SETTING BUDGET TERMS FOR KSTP 1363 AND KPER 2 TO BUDGET FILE TERMS FROM KSTP 1 AND KPER 2

end timestep


start timestep kper="2" kstp="1364" mode="normal"


 FMI SETTING BUDGET TERMS FOR KSTP 1364 AND KPER 2 TO BUDGET FILE TERMS FROM KSTP 1 AND KPER 2

 FMI SETTING HEAD FOR KSTP 1364 AND KPER 2 TO BINARY FILE HEADS FROM KSTP 1 AND KPER 2

 SFR-1 SETTING BUDGET TERMS FOR KSTP 1364 AND KPER 2 TO BUDGET FILE TERMS FROM KSTP 1 AND KPER 2

end timestep


start timestep kper="2" kstp="1365" mode="normal"


 FMI SETTING BUDGET TERMS FOR KSTP 1365 AND KPER 2 TO BUDGET FILE TERMS FROM KSTP 1 AND KPER 2

 FMI SETTING HEAD FOR KSTP 1365 AND KPER 2 TO BINARY FILE HEADS FROM KSTP 1 AND KPER 2

 SFR-1 SETTING BUDGET TERMS FOR KSTP 1365 AND KPER 2 TO BUDGET FILE TERMS FROM KSTP 1 AND KPER 2

end timestep


start timestep kper="2" kstp="1366" mode="normal"


 FMI SETTING BUDGET TERMS FOR KSTP 1366 AND KPER 2 TO BUDGET FILE TERMS FROM KSTP 1 AND KPER 2

 FMI SETTING HEAD FOR KSTP 1366 AND KPER 2 TO BINARY FILE HEADS FROM KSTP 1 AND KPER 2

 SFR-1 SETTING BUDGET TERMS FOR KSTP 1366 AND KPER 2 TO BUDGET FILE TERMS FROM KSTP 1 AND KPER 2

end timestep


start timestep kper="2" kstp="1367" mode="normal"


 FMI SETTING BUDGET TERMS FOR KSTP 1367 AND KPER 2 TO BUDGET FILE TERMS FROM KSTP 1 AND KPER 2

 FMI SETTING HEAD FOR KSTP 1367 AND KPER 2 TO BINARY FILE HEADS FROM KSTP 1 AND KPER 2

 SFR-1 SETTING BUDGET TERMS FOR KSTP 1367 AND KPER 2 TO BUDGET FILE TERMS FROM KSTP 1 AND KPER 2

end timestep


start timestep kper="2" kstp="1368" mode="normal"


 FMI SETTING BUDGET TERMS FOR KSTP 1368 AND KPER 2 TO BUDGET FILE TERMS FROM KSTP 1 AND KPER 2

 FMI SETTING HEAD FOR KSTP 1368 AND KPER 2 TO BINARY FILE HEADS FROM KSTP 1 AND KPER 2

 SFR-1 SETTING BUDGET TERMS FOR KSTP 1368 AND KPER 2 TO BUDGET FILE TERMS FROM KSTP 1 AND KPER 2

end timestep


start timestep kper="2" kstp="1369" mode="normal"


 FMI SETTING BUDGET TERMS FOR KSTP 1369 AND KPER 2 TO BUDGET FILE TERMS FROM KSTP 1 AND KPER 2

 FMI SETTING HEAD FOR KSTP 1369 AND KPER 2 TO BINARY FILE HEADS FROM KSTP 1 AND KPER 2

 SFR-1 SETTING BUDGET TERMS FOR KSTP 1369 AND KPER 2 TO BUDGET FILE TERMS FROM KSTP 1 AND KPER 2

end timestep


start timestep kper="2" kstp="1370" mode="normal"


 FMI SETTING BUDGET TERMS FOR KSTP 1370 AND KPER 2 TO BUDGET FILE TERMS FROM KSTP 1 AND KPER 2

 FMI SETTING HEAD FOR KSTP 1370 AND KPER 2 TO BINARY FILE HEADS FROM KSTP 1 AND KPER 2

 SFR-1 SETTING BUDGET TERMS FOR KSTP 1370 AND KPER 2 TO BUDGET FILE TERMS FROM KSTP 1 AND KPER 2

 CONCENTRATION WILL BE SAVED ON UNIT 1024 AT END OF TIME STEP 1370, STRESS PERIOD    2

end timestep


start timestep kper="2" kstp="1371" mode="normal"


 FMI SETTING BUDGET TERMS FOR KSTP 1371 AND KPER 2 TO BUDGET FILE TERMS FROM KSTP 1 AND KPER 2

 FMI SETTING HEAD FOR KSTP 1371 AND KPER 2 TO BINARY FILE HEADS FROM KSTP 1 AND KPER 2

 SFR-1 SETTING BUDGET TERMS FOR KSTP 1371 AND KPER 2 TO BUDGET FILE TERMS FROM KSTP 1 AND KPER 2

end timestep


start timestep kper="2" kstp="1372" mode="normal"


 FMI SETTING BUDGET TERMS FOR KSTP 1372 AND KPER 2 TO BUDGET FILE TERMS FROM KSTP 1 AND KPER 2

 FMI SETTING HEAD FOR KSTP 1372 AND KPER 2 TO BINARY FILE HEADS FROM KSTP 1 AND KPER 2

 SFR-1 SETTING BUDGET TERMS FOR KSTP 1372 AND KPER 2 TO BUDGET FILE TERMS FROM KSTP 1 AND KPER 2

end timestep


start timestep kper="2" kstp="1373" mode="normal"


 FMI SETTING BUDGET TERMS FOR KSTP 1373 AND KPER 2 TO BUDGET FILE TERMS FROM KSTP 1 AND KPER 2

 FMI SETTING HEAD FOR KSTP 1373 AND KPER 2 TO BINARY FILE HEADS FROM KSTP 1 AND KPER 2

 SFR-1 SETTING BUDGET TERMS FOR KSTP 1373 AND KPER 2 TO BUDGET FILE TERMS FROM KSTP 1 AND KPER 2

end timestep


start timestep kper="2" kstp="1374" mode="normal"


 FMI SETTING BUDGET TERMS FOR KSTP 1374 AND KPER 2 TO BUDGET FILE TERMS FROM KSTP 1 AND KPER 2

 FMI SETTING HEAD FOR KSTP 1374 AND KPER 2 TO BINARY FILE HEADS FROM KSTP 1 AND KPER 2

 SFR-1 SETTING BUDGET TERMS FOR KSTP 1374 AND KPER 2 TO BUDGET FILE TERMS FROM KSTP 1 AND KPER 2

end timestep


start timestep kper="2" kstp="1375" mode="normal"


 FMI SETTING BUDGET TERMS FOR KSTP 1375 AND KPER 2 TO BUDGET FILE TERMS FROM KSTP 1 AND KPER 2

 FMI SETTING HEAD FOR KSTP 1375 AND KPER 2 TO BINARY FILE HEADS FROM KSTP 1 AND KPER 2

 SFR-1 SETTING BUDGET TERMS FOR KSTP 1375 AND KPER 2 TO BUDGET FILE TERMS FROM KSTP 1 AND KPER 2

end timestep


start timestep kper="2" kstp="1376" mode="normal"


 FMI SETTING BUDGET TERMS FOR KSTP 1376 AND KPER 2 TO BUDGET FILE TERMS FROM KSTP 1 AND KPER 2

 FMI SETTING HEAD FOR KSTP 1376 AND KPER 2 TO BINARY FILE HEADS FROM KSTP 1 AND KPER 2

 SFR-1 SETTING BUDGET TERMS FOR KSTP 1376 AND KPER 2 TO BUDGET FILE TERMS FROM KSTP 1 AND KPER 2

end timestep


start timestep kper="2" kstp="1377" mode="normal"


 FMI SETTING BUDGET TERMS FOR KSTP 1377 AND KPER 2 TO BUDGET FILE TERMS FROM KSTP 1 AND KPER 2

 FMI SETTING HEAD FOR KSTP 1377 AND KPER 2 TO BINARY FILE HEADS FROM KSTP 1 AND KPER 2

 SFR-1 SETTING BUDGET TERMS FOR KSTP 1377 AND KPER 2 TO BUDGET FILE TERMS FROM KSTP 1 AND KPER 2

end timestep


start timestep kper="2" kstp="1378" mode="normal"


 FMI SETTING BUDGET TERMS FOR KSTP 1378 AND KPER 2 TO BUDGET FILE TERMS FROM KSTP 1 AND KPER 2

 FMI SETTING HEAD FOR KSTP 1378 AND KPER 2 TO BINARY FILE HEADS FROM KSTP 1 AND KPER 2

 SFR-1 SETTING BUDGET TERMS FOR KSTP 1378 AND KPER 2 TO BUDGET FILE TERMS FROM KSTP 1 AND KPER 2

end timestep


start timestep kper="2" kstp="1379" mode="normal"


 FMI SETTING BUDGET TERMS FOR KSTP 1379 AND KPER 2 TO BUDGET FILE TERMS FROM KSTP 1 AND KPER 2

 FMI SETTING HEAD FOR KSTP 1379 AND KPER 2 TO BINARY FILE HEADS FROM KSTP 1 AND KPER 2

 SFR-1 SETTING BUDGET TERMS FOR KSTP 1379 AND KPER 2 TO BUDGET FILE TERMS FROM KSTP 1 AND KPER 2

end timestep


start timestep kper="2" kstp="1380" mode="normal"


 FMI SETTING BUDGET TERMS FOR KSTP 1380 AND KPER 2 TO BUDGET FILE TERMS FROM KSTP 1 AND KPER 2

 FMI SETTING HEAD FOR KSTP 1380 AND KPER 2 TO BINARY FILE HEADS FROM KSTP 1 AND KPER 2

 SFR-1 SETTING BUDGET TERMS FOR KSTP 1380 AND KPER 2 TO BUDGET FILE TERMS FROM KSTP 1 AND KPER 2

 CONCENTRATION WILL BE SAVED ON UNIT 1024 AT END OF TIME STEP 1380, STRESS PERIOD    2

end timestep


start timestep kper="2" kstp="1381" mode="normal"


 FMI SETTING BUDGET TERMS FOR KSTP 1381 AND KPER 2 TO BUDGET FILE TERMS FROM KSTP 1 AND KPER 2

 FMI SETTING HEAD FOR KSTP 1381 AND KPER 2 TO BINARY FILE HEADS FROM KSTP 1 AND KPER 2

 SFR-1 SETTING BUDGET TERMS FOR KSTP 1381 AND KPER 2 TO BUDGET FILE TERMS FROM KSTP 1 AND KPER 2

end timestep


start timestep kper="2" kstp="1382" mode="normal"


 FMI SETTING BUDGET TERMS FOR KSTP 1382 AND KPER 2 TO BUDGET FILE TERMS FROM KSTP 1 AND KPER 2

 FMI SETTING HEAD FOR KSTP 1382 AND KPER 2 TO BINARY FILE HEADS FROM KSTP 1 AND KPER 2

 SFR-1 SETTING BUDGET TERMS FOR KSTP 1382 AND KPER 2 TO BUDGET FILE TERMS FROM KSTP 1 AND KPER 2

end timestep


start timestep kper="2" kstp="1383" mode="normal"


 FMI SETTING BUDGET TERMS FOR KSTP 1383 AND KPER 2 TO BUDGET FILE TERMS FROM KSTP 1 AND KPER 2

 FMI SETTING HEAD FOR KSTP 1383 AND KPER 2 TO BINARY FILE HEADS FROM KSTP 1 AND KPER 2

 SFR-1 SETTING BUDGET TERMS FOR KSTP 1383 AND KPER 2 TO BUDGET FILE TERMS FROM KSTP 1 AND KPER 2

end timestep


start timestep kper="2" kstp="1384" mode="normal"


 FMI SETTING BUDGET TERMS FOR KSTP 1384 AND KPER 2 TO BUDGET FILE TERMS FROM KSTP 1 AND KPER 2

 FMI SETTING HEAD FOR KSTP 1384 AND KPER 2 TO BINARY FILE HEADS FROM KSTP 1 AND KPER 2

 SFR-1 SETTING BUDGET TERMS FOR KSTP 1384 AND KPER 2 TO BUDGET FILE TERMS FROM KSTP 1 AND KPER 2

end timestep


start timestep kper="2" kstp="1385" mode="normal"


 FMI SETTING BUDGET TERMS FOR KSTP 1385 AND KPER 2 TO BUDGET FILE TERMS FROM KSTP 1 AND KPER 2

 FMI SETTING HEAD FOR KSTP 1385 AND KPER 2 TO BINARY FILE HEADS FROM KSTP 1 AND KPER 2

 SFR-1 SETTING BUDGET TERMS FOR KSTP 1385 AND KPER 2 TO BUDGET FILE TERMS FROM KSTP 1 AND KPER 2

end timestep


start timestep kper="2" kstp="1386" mode="normal"


 FMI SETTING BUDGET TERMS FOR KSTP 1386 AND KPER 2 TO BUDGET FILE TERMS FROM KSTP 1 AND KPER 2

 FMI SETTING HEAD FOR KSTP 1386 AND KPER 2 TO BINARY FILE HEADS FROM KSTP 1 AND KPER 2

 SFR-1 SETTING BUDGET TERMS FOR KSTP 1386 AND KPER 2 TO BUDGET FILE TERMS FROM KSTP 1 AND KPER 2

end timestep


start timestep kper="2" kstp="1387" mode="normal"


 FMI SETTING BUDGET TERMS FOR KSTP 1387 AND KPER 2 TO BUDGET FILE TERMS FROM KSTP 1 AND KPER 2

 FMI SETTING HEAD FOR KSTP 1387 AND KPER 2 TO BINARY FILE HEADS FROM KSTP 1 AND KPER 2

 SFR-1 SETTING BUDGET TERMS FOR KSTP 1387 AND KPER 2 TO BUDGET FILE TERMS FROM KSTP 1 AND KPER 2

end timestep


start timestep kper="2" kstp="1388" mode="normal"


 FMI SETTING BUDGET TERMS FOR KSTP 1388 AND KPER 2 TO BUDGET FILE TERMS FROM KSTP 1 AND KPER 2

 FMI SETTING HEAD FOR KSTP 1388 AND KPER 2 TO BINARY FILE HEADS FROM KSTP 1 AND KPER 2

 SFR-1 SETTING BUDGET TERMS FOR KSTP 1388 AND KPER 2 TO BUDGET FILE TERMS FROM KSTP 1 AND KPER 2

end timestep


start timestep kper="2" kstp="1389" mode="normal"


 FMI SETTING BUDGET TERMS FOR KSTP 1389 AND KPER 2 TO BUDGET FILE TERMS FROM KSTP 1 AND KPER 2

 FMI SETTING HEAD FOR KSTP 1389 AND KPER 2 TO BINARY FILE HEADS FROM KSTP 1 AND KPER 2

 SFR-1 SETTING BUDGET TERMS FOR KSTP 1389 AND KPER 2 TO BUDGET FILE TERMS FROM KSTP 1 AND KPER 2

end timestep


start timestep kper="2" kstp="1390" mode="normal"


 FMI SETTING BUDGET TERMS FOR KSTP 1390 AND KPER 2 TO BUDGET FILE TERMS FROM KSTP 1 AND KPER 2

 FMI SETTING HEAD FOR KSTP 1390 AND KPER 2 TO BINARY FILE HEADS FROM KSTP 1 AND KPER 2

 SFR-1 SETTING BUDGET TERMS FOR KSTP 1390 AND KPER 2 TO BUDGET FILE TERMS FROM KSTP 1 AND KPER 2

 CONCENTRATION WILL BE SAVED ON UNIT 1024 AT END OF TIME STEP 1390, STRESS PERIOD    2

end timestep


start timestep kper="2" kstp="1391" mode="normal"


 FMI SETTING BUDGET TERMS FOR KSTP 1391 AND KPER 2 TO BUDGET FILE TERMS FROM KSTP 1 AND KPER 2

 FMI SETTING HEAD FOR KSTP 1391 AND KPER 2 TO BINARY FILE HEADS FROM KSTP 1 AND KPER 2

 SFR-1 SETTING BUDGET TERMS FOR KSTP 1391 AND KPER 2 TO BUDGET FILE TERMS FROM KSTP 1 AND KPER 2

end timestep


start timestep kper="2" kstp="1392" mode="normal"


 FMI SETTING BUDGET TERMS FOR KSTP 1392 AND KPER 2 TO BUDGET FILE TERMS FROM KSTP 1 AND KPER 2

 FMI SETTING HEAD FOR KSTP 1392 AND KPER 2 TO BINARY FILE HEADS FROM KSTP 1 AND KPER 2

 SFR-1 SETTING BUDGET TERMS FOR KSTP 1392 AND KPER 2 TO BUDGET FILE TERMS FROM KSTP 1 AND KPER 2

end timestep


start timestep kper="2" kstp="1393" mode="normal"


 FMI SETTING BUDGET TERMS FOR KSTP 1393 AND KPER 2 TO BUDGET FILE TERMS FROM KSTP 1 AND KPER 2

 FMI SETTING HEAD FOR KSTP 1393 AND KPER 2 TO BINARY FILE HEADS FROM KSTP 1 AND KPER 2

 SFR-1 SETTING BUDGET TERMS FOR KSTP 1393 AND KPER 2 TO BUDGET FILE TERMS FROM KSTP 1 AND KPER 2

end timestep


start timestep kper="2" kstp="1394" mode="normal"


 FMI SETTING BUDGET TERMS FOR KSTP 1394 AND KPER 2 TO BUDGET FILE TERMS FROM KSTP 1 AND KPER 2

 FMI SETTING HEAD FOR KSTP 1394 AND KPER 2 TO BINARY FILE HEADS FROM KSTP 1 AND KPER 2

 SFR-1 SETTING BUDGET TERMS FOR KSTP 1394 AND KPER 2 TO BUDGET FILE TERMS FROM KSTP 1 AND KPER 2

end timestep


start timestep kper="2" kstp="1395" mode="normal"


 FMI SETTING BUDGET TERMS FOR KSTP 1395 AND KPER 2 TO BUDGET FILE TERMS FROM KSTP 1 AND KPER 2

 FMI SETTING HEAD FOR KSTP 1395 AND KPER 2 TO BINARY FILE HEADS FROM KSTP 1 AND KPER 2

 SFR-1 SETTING BUDGET TERMS FOR KSTP 1395 AND KPER 2 TO BUDGET FILE TERMS FROM KSTP 1 AND KPER 2

end timestep


start timestep kper="2" kstp="1396" mode="normal"


 FMI SETTING BUDGET TERMS FOR KSTP 1396 AND KPER 2 TO BUDGET FILE TERMS FROM KSTP 1 AND KPER 2

 FMI SETTING HEAD FOR KSTP 1396 AND KPER 2 TO BINARY FILE HEADS FROM KSTP 1 AND KPER 2

 SFR-1 SETTING BUDGET TERMS FOR KSTP 1396 AND KPER 2 TO BUDGET FILE TERMS FROM KSTP 1 AND KPER 2

end timestep


start timestep kper="2" kstp="1397" mode="normal"


 FMI SETTING BUDGET TERMS FOR KSTP 1397 AND KPER 2 TO BUDGET FILE TERMS FROM KSTP 1 AND KPER 2

 FMI SETTING HEAD FOR KSTP 1397 AND KPER 2 TO BINARY FILE HEADS FROM KSTP 1 AND KPER 2

 SFR-1 SETTING BUDGET TERMS FOR KSTP 1397 AND KPER 2 TO BUDGET FILE TERMS FROM KSTP 1 AND KPER 2

end timestep


start timestep kper="2" kstp="1398" mode="normal"


 FMI SETTING BUDGET TERMS FOR KSTP 1398 AND KPER 2 TO BUDGET FILE TERMS FROM KSTP 1 AND KPER 2

 FMI SETTING HEAD FOR KSTP 1398 AND KPER 2 TO BINARY FILE HEADS FROM KSTP 1 AND KPER 2

 SFR-1 SETTING BUDGET TERMS FOR KSTP 1398 AND KPER 2 TO BUDGET FILE TERMS FROM KSTP 1 AND KPER 2

end timestep


start timestep kper="2" kstp="1399" mode="normal"


 FMI SETTING BUDGET TERMS FOR KSTP 1399 AND KPER 2 TO BUDGET FILE TERMS FROM KSTP 1 AND KPER 2

 FMI SETTING HEAD FOR KSTP 1399 AND KPER 2 TO BINARY FILE HEADS FROM KSTP 1 AND KPER 2

 SFR-1 SETTING BUDGET TERMS FOR KSTP 1399 AND KPER 2 TO BUDGET FILE TERMS FROM KSTP 1 AND KPER 2

end timestep


start timestep kper="2" kstp="1400" mode="normal"


 FMI SETTING BUDGET TERMS FOR KSTP 1400 AND KPER 2 TO BUDGET FILE TERMS FROM KSTP 1 AND KPER 2

 FMI SETTING HEAD FOR KSTP 1400 AND KPER 2 TO BINARY FILE HEADS FROM KSTP 1 AND KPER 2

 SFR-1 SETTING BUDGET TERMS FOR KSTP 1400 AND KPER 2 TO BUDGET FILE TERMS FROM KSTP 1 AND KPER 2

 CONCENTRATION WILL BE SAVED ON UNIT 1024 AT END OF TIME STEP 1400, STRESS PERIOD    2

end timestep


start timestep kper="2" kstp="1401" mode="normal"


 FMI SETTING BUDGET TERMS FOR KSTP 1401 AND KPER 2 TO BUDGET FILE TERMS FROM KSTP 1 AND KPER 2

 FMI SETTING HEAD FOR KSTP 1401 AND KPER 2 TO BINARY FILE HEADS FROM KSTP 1 AND KPER 2

 SFR-1 SETTING BUDGET TERMS FOR KSTP 1401 AND KPER 2 TO BUDGET FILE TERMS FROM KSTP 1 AND KPER 2

end timestep


start timestep kper="2" kstp="1402" mode="normal"


 FMI SETTING BUDGET TERMS FOR KSTP 1402 AND KPER 2 TO BUDGET FILE TERMS FROM KSTP 1 AND KPER 2

 FMI SETTING HEAD FOR KSTP 1402 AND KPER 2 TO BINARY FILE HEADS FROM KSTP 1 AND KPER 2

 SFR-1 SETTING BUDGET TERMS FOR KSTP 1402 AND KPER 2 TO BUDGET FILE TERMS FROM KSTP 1 AND KPER 2

end timestep


start timestep kper="2" kstp="1403" mode="normal"


 FMI SETTING BUDGET TERMS FOR KSTP 1403 AND KPER 2 TO BUDGET FILE TERMS FROM KSTP 1 AND KPER 2

 FMI SETTING HEAD FOR KSTP 1403 AND KPER 2 TO BINARY FILE HEADS FROM KSTP 1 AND KPER 2

 SFR-1 SETTING BUDGET TERMS FOR KSTP 1403 AND KPER 2 TO BUDGET FILE TERMS FROM KSTP 1 AND KPER 2

end timestep


start timestep kper="2" kstp="1404" mode="normal"


 FMI SETTING BUDGET TERMS FOR KSTP 1404 AND KPER 2 TO BUDGET FILE TERMS FROM KSTP 1 AND KPER 2

 FMI SETTING HEAD FOR KSTP 1404 AND KPER 2 TO BINARY FILE HEADS FROM KSTP 1 AND KPER 2

 SFR-1 SETTING BUDGET TERMS FOR KSTP 1404 AND KPER 2 TO BUDGET FILE TERMS FROM KSTP 1 AND KPER 2

end timestep


start timestep kper="2" kstp="1405" mode="normal"


 FMI SETTING BUDGET TERMS FOR KSTP 1405 AND KPER 2 TO BUDGET FILE TERMS FROM KSTP 1 AND KPER 2

 FMI SETTING HEAD FOR KSTP 1405 AND KPER 2 TO BINARY FILE HEADS FROM KSTP 1 AND KPER 2

 SFR-1 SETTING BUDGET TERMS FOR KSTP 1405 AND KPER 2 TO BUDGET FILE TERMS FROM KSTP 1 AND KPER 2

end timestep


start timestep kper="2" kstp="1406" mode="normal"


 FMI SETTING BUDGET TERMS FOR KSTP 1406 AND KPER 2 TO BUDGET FILE TERMS FROM KSTP 1 AND KPER 2

 FMI SETTING HEAD FOR KSTP 1406 AND KPER 2 TO BINARY FILE HEADS FROM KSTP 1 AND KPER 2

 SFR-1 SETTING BUDGET TERMS FOR KSTP 1406 AND KPER 2 TO BUDGET FILE TERMS FROM KSTP 1 AND KPER 2

end timestep


start timestep kper="2" kstp="1407" mode="normal"


 FMI SETTING BUDGET TERMS FOR KSTP 1407 AND KPER 2 TO BUDGET FILE TERMS FROM KSTP 1 AND KPER 2

 FMI SETTING HEAD FOR KSTP 1407 AND KPER 2 TO BINARY FILE HEADS FROM KSTP 1 AND KPER 2

 SFR-1 SETTING BUDGET TERMS FOR KSTP 1407 AND KPER 2 TO BUDGET FILE TERMS FROM KSTP 1 AND KPER 2

end timestep


start timestep kper="2" kstp="1408" mode="normal"


 FMI SETTING BUDGET TERMS FOR KSTP 1408 AND KPER 2 TO BUDGET FILE TERMS FROM KSTP 1 AND KPER 2

 FMI SETTING HEAD FOR KSTP 1408 AND KPER 2 TO BINARY FILE HEADS FROM KSTP 1 AND KPER 2

 SFR-1 SETTING BUDGET TERMS FOR KSTP 1408 AND KPER 2 TO BUDGET FILE TERMS FROM KSTP 1 AND KPER 2

end timestep


start timestep kper="2" kstp="1409" mode="normal"


 FMI SETTING BUDGET TERMS FOR KSTP 1409 AND KPER 2 TO BUDGET FILE TERMS FROM KSTP 1 AND KPER 2

 FMI SETTING HEAD FOR KSTP 1409 AND KPER 2 TO BINARY FILE HEADS FROM KSTP 1 AND KPER 2

 SFR-1 SETTING BUDGET TERMS FOR KSTP 1409 AND KPER 2 TO BUDGET FILE TERMS FROM KSTP 1 AND KPER 2

end timestep


start timestep kper="2" kstp="1410" mode="normal"


 FMI SETTING BUDGET TERMS FOR KSTP 1410 AND KPER 2 TO BUDGET FILE TERMS FROM KSTP 1 AND KPER 2

 FMI SETTING HEAD FOR KSTP 1410 AND KPER 2 TO BINARY FILE HEADS FROM KSTP 1 AND KPER 2

 SFR-1 SETTING BUDGET TERMS FOR KSTP 1410 AND KPER 2 TO BUDGET FILE TERMS FROM KSTP 1 AND KPER 2

 CONCENTRATION WILL BE SAVED ON UNIT 1024 AT END OF TIME STEP 1410, STRESS PERIOD    2

end timestep


start timestep kper="2" kstp="1411" mode="normal"


 FMI SETTING BUDGET TERMS FOR KSTP 1411 AND KPER 2 TO BUDGET FILE TERMS FROM KSTP 1 AND KPER 2

 FMI SETTING HEAD FOR KSTP 1411 AND KPER 2 TO BINARY FILE HEADS FROM KSTP 1 AND KPER 2

 SFR-1 SETTING BUDGET TERMS FOR KSTP 1411 AND KPER 2 TO BUDGET FILE TERMS FROM KSTP 1 AND KPER 2

end timestep


start timestep kper="2" kstp="1412" mode="normal"


 FMI SETTING BUDGET TERMS FOR KSTP 1412 AND KPER 2 TO BUDGET FILE TERMS FROM KSTP 1 AND KPER 2

 FMI SETTING HEAD FOR KSTP 1412 AND KPER 2 TO BINARY FILE HEADS FROM KSTP 1 AND KPER 2

 SFR-1 SETTING BUDGET TERMS FOR KSTP 1412 AND KPER 2 TO BUDGET FILE TERMS FROM KSTP 1 AND KPER 2

end timestep


start timestep kper="2" kstp="1413" mode="normal"


 FMI SETTING BUDGET TERMS FOR KSTP 1413 AND KPER 2 TO BUDGET FILE TERMS FROM KSTP 1 AND KPER 2

 FMI SETTING HEAD FOR KSTP 1413 AND KPER 2 TO BINARY FILE HEADS FROM KSTP 1 AND KPER 2

 SFR-1 SETTING BUDGET TERMS FOR KSTP 1413 AND KPER 2 TO BUDGET FILE TERMS FROM KSTP 1 AND KPER 2

end timestep


start timestep kper="2" kstp="1414" mode="normal"


 FMI SETTING BUDGET TERMS FOR KSTP 1414 AND KPER 2 TO BUDGET FILE TERMS FROM KSTP 1 AND KPER 2

 FMI SETTING HEAD FOR KSTP 1414 AND KPER 2 TO BINARY FILE HEADS FROM KSTP 1 AND KPER 2

 SFR-1 SETTING BUDGET TERMS FOR KSTP 1414 AND KPER 2 TO BUDGET FILE TERMS FROM KSTP 1 AND KPER 2

end timestep


start timestep kper="2" kstp="1415" mode="normal"


 FMI SETTING BUDGET TERMS FOR KSTP 1415 AND KPER 2 TO BUDGET FILE TERMS FROM KSTP 1 AND KPER 2

 FMI SETTING HEAD FOR KSTP 1415 AND KPER 2 TO BINARY FILE HEADS FROM KSTP 1 AND KPER 2

 SFR-1 SETTING BUDGET TERMS FOR KSTP 1415 AND KPER 2 TO BUDGET FILE TERMS FROM KSTP 1 AND KPER 2

end timestep


start timestep kper="2" kstp="1416" mode="normal"


 FMI SETTING BUDGET TERMS FOR KSTP 1416 AND KPER 2 TO BUDGET FILE TERMS FROM KSTP 1 AND KPER 2

 FMI SETTING HEAD FOR KSTP 1416 AND KPER 2 TO BINARY FILE HEADS FROM KSTP 1 AND KPER 2

 SFR-1 SETTING BUDGET TERMS FOR KSTP 1416 AND KPER 2 TO BUDGET FILE TERMS FROM KSTP 1 AND KPER 2

end timestep


start timestep kper="2" kstp="1417" mode="normal"


 FMI SETTING BUDGET TERMS FOR KSTP 1417 AND KPER 2 TO BUDGET FILE TERMS FROM KSTP 1 AND KPER 2

 FMI SETTING HEAD FOR KSTP 1417 AND KPER 2 TO BINARY FILE HEADS FROM KSTP 1 AND KPER 2

 SFR-1 SETTING BUDGET TERMS FOR KSTP 1417 AND KPER 2 TO BUDGET FILE TERMS FROM KSTP 1 AND KPER 2

end timestep


start timestep kper="2" kstp="1418" mode="normal"


 FMI SETTING BUDGET TERMS FOR KSTP 1418 AND KPER 2 TO BUDGET FILE TERMS FROM KSTP 1 AND KPER 2

 FMI SETTING HEAD FOR KSTP 1418 AND KPER 2 TO BINARY FILE HEADS FROM KSTP 1 AND KPER 2

 SFR-1 SETTING BUDGET TERMS FOR KSTP 1418 AND KPER 2 TO BUDGET FILE TERMS FROM KSTP 1 AND KPER 2

end timestep


start timestep kper="2" kstp="1419" mode="normal"


 FMI SETTING BUDGET TERMS FOR KSTP 1419 AND KPER 2 TO BUDGET FILE TERMS FROM KSTP 1 AND KPER 2

 FMI SETTING HEAD FOR KSTP 1419 AND KPER 2 TO BINARY FILE HEADS FROM KSTP 1 AND KPER 2

 SFR-1 SETTING BUDGET TERMS FOR KSTP 1419 AND KPER 2 TO BUDGET FILE TERMS FROM KSTP 1 AND KPER 2

end timestep


start timestep kper="2" kstp="1420" mode="normal"


 FMI SETTING BUDGET TERMS FOR KSTP 1420 AND KPER 2 TO BUDGET FILE TERMS FROM KSTP 1 AND KPER 2

 FMI SETTING HEAD FOR KSTP 1420 AND KPER 2 TO BINARY FILE HEADS FROM KSTP 1 AND KPER 2

 SFR-1 SETTING BUDGET TERMS FOR KSTP 1420 AND KPER 2 TO BUDGET FILE TERMS FROM KSTP 1 AND KPER 2

 CONCENTRATION WILL BE SAVED ON UNIT 1024 AT END OF TIME STEP 1420, STRESS PERIOD    2

end timestep


start timestep kper="2" kstp="1421" mode="normal"


 FMI SETTING BUDGET TERMS FOR KSTP 1421 AND KPER 2 TO BUDGET FILE TERMS FROM KSTP 1 AND KPER 2

 FMI SETTING HEAD FOR KSTP 1421 AND KPER 2 TO BINARY FILE HEADS FROM KSTP 1 AND KPER 2

 SFR-1 SETTING BUDGET TERMS FOR KSTP 1421 AND KPER 2 TO BUDGET FILE TERMS FROM KSTP 1 AND KPER 2

end timestep


start timestep kper="2" kstp="1422" mode="normal"


 FMI SETTING BUDGET TERMS FOR KSTP 1422 AND KPER 2 TO BUDGET FILE TERMS FROM KSTP 1 AND KPER 2

 FMI SETTING HEAD FOR KSTP 1422 AND KPER 2 TO BINARY FILE HEADS FROM KSTP 1 AND KPER 2

 SFR-1 SETTING BUDGET TERMS FOR KSTP 1422 AND KPER 2 TO BUDGET FILE TERMS FROM KSTP 1 AND KPER 2

end timestep


start timestep kper="2" kstp="1423" mode="normal"


 FMI SETTING BUDGET TERMS FOR KSTP 1423 AND KPER 2 TO BUDGET FILE TERMS FROM KSTP 1 AND KPER 2

 FMI SETTING HEAD FOR KSTP 1423 AND KPER 2 TO BINARY FILE HEADS FROM KSTP 1 AND KPER 2

 SFR-1 SETTING BUDGET TERMS FOR KSTP 1423 AND KPER 2 TO BUDGET FILE TERMS FROM KSTP 1 AND KPER 2

end timestep


start timestep kper="2" kstp="1424" mode="normal"


 FMI SETTING BUDGET TERMS FOR KSTP 1424 AND KPER 2 TO BUDGET FILE TERMS FROM KSTP 1 AND KPER 2

 FMI SETTING HEAD FOR KSTP 1424 AND KPER 2 TO BINARY FILE HEADS FROM KSTP 1 AND KPER 2

 SFR-1 SETTING BUDGET TERMS FOR KSTP 1424 AND KPER 2 TO BUDGET FILE TERMS FROM KSTP 1 AND KPER 2

end timestep


start timestep kper="2" kstp="1425" mode="normal"


 FMI SETTING BUDGET TERMS FOR KSTP 1425 AND KPER 2 TO BUDGET FILE TERMS FROM KSTP 1 AND KPER 2

 FMI SETTING HEAD FOR KSTP 1425 AND KPER 2 TO BINARY FILE HEADS FROM KSTP 1 AND KPER 2

 SFR-1 SETTING BUDGET TERMS FOR KSTP 1425 AND KPER 2 TO BUDGET FILE TERMS FROM KSTP 1 AND KPER 2

end timestep


start timestep kper="2" kstp="1426" mode="normal"


 FMI SETTING BUDGET TERMS FOR KSTP 1426 AND KPER 2 TO BUDGET FILE TERMS FROM KSTP 1 AND KPER 2

 FMI SETTING HEAD FOR KSTP 1426 AND KPER 2 TO BINARY FILE HEADS FROM KSTP 1 AND KPER 2

 SFR-1 SETTING BUDGET TERMS FOR KSTP 1426 AND KPER 2 TO BUDGET FILE TERMS FROM KSTP 1 AND KPER 2

end timestep


start timestep kper="2" kstp="1427" mode="normal"


 FMI SETTING BUDGET TERMS FOR KSTP 1427 AND KPER 2 TO BUDGET FILE TERMS FROM KSTP 1 AND KPER 2

 FMI SETTING HEAD FOR KSTP 1427 AND KPER 2 TO BINARY FILE HEADS FROM KSTP 1 AND KPER 2

 SFR-1 SETTING BUDGET TERMS FOR KSTP 1427 AND KPER 2 TO BUDGET FILE TERMS FROM KSTP 1 AND KPER 2

end timestep


start timestep kper="2" kstp="1428" mode="normal"


 FMI SETTING BUDGET TERMS FOR KSTP 1428 AND KPER 2 TO BUDGET FILE TERMS FROM KSTP 1 AND KPER 2

 FMI SETTING HEAD FOR KSTP 1428 AND KPER 2 TO BINARY FILE HEADS FROM KSTP 1 AND KPER 2

 SFR-1 SETTING BUDGET TERMS FOR KSTP 1428 AND KPER 2 TO BUDGET FILE TERMS FROM KSTP 1 AND KPER 2

end timestep


start timestep kper="2" kstp="1429" mode="normal"


 FMI SETTING BUDGET TERMS FOR KSTP 1429 AND KPER 2 TO BUDGET FILE TERMS FROM KSTP 1 AND KPER 2

 FMI SETTING HEAD FOR KSTP 1429 AND KPER 2 TO BINARY FILE HEADS FROM KSTP 1 AND KPER 2

 SFR-1 SETTING BUDGET TERMS FOR KSTP 1429 AND KPER 2 TO BUDGET FILE TERMS FROM KSTP 1 AND KPER 2

end timestep


start timestep kper="2" kstp="1430" mode="normal"


 FMI SETTING BUDGET TERMS FOR KSTP 1430 AND KPER 2 TO BUDGET FILE TERMS FROM KSTP 1 AND KPER 2

 FMI SETTING HEAD FOR KSTP 1430 AND KPER 2 TO BINARY FILE HEADS FROM KSTP 1 AND KPER 2

 SFR-1 SETTING BUDGET TERMS FOR KSTP 1430 AND KPER 2 TO BUDGET FILE TERMS FROM KSTP 1 AND KPER 2

 CONCENTRATION WILL BE SAVED ON UNIT 1024 AT END OF TIME STEP 1430, STRESS PERIOD    2

end timestep


start timestep kper="2" kstp="1431" mode="normal"


 FMI SETTING BUDGET TERMS FOR KSTP 1431 AND KPER 2 TO BUDGET FILE TERMS FROM KSTP 1 AND KPER 2

 FMI SETTING HEAD FOR KSTP 1431 AND KPER 2 TO BINARY FILE HEADS FROM KSTP 1 AND KPER 2

 SFR-1 SETTING BUDGET TERMS FOR KSTP 1431 AND KPER 2 TO BUDGET FILE TERMS FROM KSTP 1 AND KPER 2

end timestep


start timestep kper="2" kstp="1432" mode="normal"


 FMI SETTING BUDGET TERMS FOR KSTP 1432 AND KPER 2 TO BUDGET FILE TERMS FROM KSTP 1 AND KPER 2

 FMI SETTING HEAD FOR KSTP 1432 AND KPER 2 TO BINARY FILE HEADS FROM KSTP 1 AND KPER 2

 SFR-1 SETTING BUDGET TERMS FOR KSTP 1432 AND KPER 2 TO BUDGET FILE TERMS FROM KSTP 1 AND KPER 2

end timestep


start timestep kper="2" kstp="1433" mode="normal"


 FMI SETTING BUDGET TERMS FOR KSTP 1433 AND KPER 2 TO BUDGET FILE TERMS FROM KSTP 1 AND KPER 2

 FMI SETTING HEAD FOR KSTP 1433 AND KPER 2 TO BINARY FILE HEADS FROM KSTP 1 AND KPER 2

 SFR-1 SETTING BUDGET TERMS FOR KSTP 1433 AND KPER 2 TO BUDGET FILE TERMS FROM KSTP 1 AND KPER 2

end timestep


start timestep kper="2" kstp="1434" mode="normal"


 FMI SETTING BUDGET TERMS FOR KSTP 1434 AND KPER 2 TO BUDGET FILE TERMS FROM KSTP 1 AND KPER 2

 FMI SETTING HEAD FOR KSTP 1434 AND KPER 2 TO BINARY FILE HEADS FROM KSTP 1 AND KPER 2

 SFR-1 SETTING BUDGET TERMS FOR KSTP 1434 AND KPER 2 TO BUDGET FILE TERMS FROM KSTP 1 AND KPER 2

end timestep


start timestep kper="2" kstp="1435" mode="normal"


 FMI SETTING BUDGET TERMS FOR KSTP 1435 AND KPER 2 TO BUDGET FILE TERMS FROM KSTP 1 AND KPER 2

 FMI SETTING HEAD FOR KSTP 1435 AND KPER 2 TO BINARY FILE HEADS FROM KSTP 1 AND KPER 2

 SFR-1 SETTING BUDGET TERMS FOR KSTP 1435 AND KPER 2 TO BUDGET FILE TERMS FROM KSTP 1 AND KPER 2

end timestep


start timestep kper="2" kstp="1436" mode="normal"


 FMI SETTING BUDGET TERMS FOR KSTP 1436 AND KPER 2 TO BUDGET FILE TERMS FROM KSTP 1 AND KPER 2

 FMI SETTING HEAD FOR KSTP 1436 AND KPER 2 TO BINARY FILE HEADS FROM KSTP 1 AND KPER 2

 SFR-1 SETTING BUDGET TERMS FOR KSTP 1436 AND KPER 2 TO BUDGET FILE TERMS FROM KSTP 1 AND KPER 2

end timestep


start timestep kper="2" kstp="1437" mode="normal"


 FMI SETTING BUDGET TERMS FOR KSTP 1437 AND KPER 2 TO BUDGET FILE TERMS FROM KSTP 1 AND KPER 2

 FMI SETTING HEAD FOR KSTP 1437 AND KPER 2 TO BINARY FILE HEADS FROM KSTP 1 AND KPER 2

 SFR-1 SETTING BUDGET TERMS FOR KSTP 1437 AND KPER 2 TO BUDGET FILE TERMS FROM KSTP 1 AND KPER 2

end timestep


start timestep kper="2" kstp="1438" mode="normal"


 FMI SETTING BUDGET TERMS FOR KSTP 1438 AND KPER 2 TO BUDGET FILE TERMS FROM KSTP 1 AND KPER 2

 FMI SETTING HEAD FOR KSTP 1438 AND KPER 2 TO BINARY FILE HEADS FROM KSTP 1 AND KPER 2

 SFR-1 SETTING BUDGET TERMS FOR KSTP 1438 AND KPER 2 TO BUDGET FILE TERMS FROM KSTP 1 AND KPER 2

end timestep


start timestep kper="2" kstp="1439" mode="normal"


 FMI SETTING BUDGET TERMS FOR KSTP 1439 AND KPER 2 TO BUDGET FILE TERMS FROM KSTP 1 AND KPER 2

 FMI SETTING HEAD FOR KSTP 1439 AND KPER 2 TO BINARY FILE HEADS FROM KSTP 1 AND KPER 2

 SFR-1 SETTING BUDGET TERMS FOR KSTP 1439 AND KPER 2 TO BUDGET FILE TERMS FROM KSTP 1 AND KPER 2

end timestep


start timestep kper="2" kstp="1440" mode="normal"


 FMI SETTING BUDGET TERMS FOR KSTP 1440 AND KPER 2 TO BUDGET FILE TERMS FROM KSTP 1 AND KPER 2

 FMI SETTING HEAD FOR KSTP 1440 AND KPER 2 TO BINARY FILE HEADS FROM KSTP 1 AND KPER 2

 SFR-1 SETTING BUDGET TERMS FOR KSTP 1440 AND KPER 2 TO BUDGET FILE TERMS FROM KSTP 1 AND KPER 2

 CONCENTRATION WILL BE SAVED ON UNIT 1024 AT END OF TIME STEP 1440, STRESS PERIOD    2

end timestep


start timestep kper="2" kstp="1441" mode="normal"


 FMI SETTING BUDGET TERMS FOR KSTP 1441 AND KPER 2 TO BUDGET FILE TERMS FROM KSTP 1 AND KPER 2

 FMI SETTING HEAD FOR KSTP 1441 AND KPER 2 TO BINARY FILE HEADS FROM KSTP 1 AND KPER 2

 SFR-1 SETTING BUDGET TERMS FOR KSTP 1441 AND KPER 2 TO BUDGET FILE TERMS FROM KSTP 1 AND KPER 2

end timestep


start timestep kper="2" kstp="1442" mode="normal"


 FMI SETTING BUDGET TERMS FOR KSTP 1442 AND KPER 2 TO BUDGET FILE TERMS FROM KSTP 1 AND KPER 2

 FMI SETTING HEAD FOR KSTP 1442 AND KPER 2 TO BINARY FILE HEADS FROM KSTP 1 AND KPER 2

 SFR-1 SETTING BUDGET TERMS FOR KSTP 1442 AND KPER 2 TO BUDGET FILE TERMS FROM KSTP 1 AND KPER 2

end timestep


start timestep kper="2" kstp="1443" mode="normal"


 FMI SETTING BUDGET TERMS FOR KSTP 1443 AND KPER 2 TO BUDGET FILE TERMS FROM KSTP 1 AND KPER 2

 FMI SETTING HEAD FOR KSTP 1443 AND KPER 2 TO BINARY FILE HEADS FROM KSTP 1 AND KPER 2

 SFR-1 SETTING BUDGET TERMS FOR KSTP 1443 AND KPER 2 TO BUDGET FILE TERMS FROM KSTP 1 AND KPER 2

end timestep


start timestep kper="2" kstp="1444" mode="normal"


 FMI SETTING BUDGET TERMS FOR KSTP 1444 AND KPER 2 TO BUDGET FILE TERMS FROM KSTP 1 AND KPER 2

 FMI SETTING HEAD FOR KSTP 1444 AND KPER 2 TO BINARY FILE HEADS FROM KSTP 1 AND KPER 2

 SFR-1 SETTING BUDGET TERMS FOR KSTP 1444 AND KPER 2 TO BUDGET FILE TERMS FROM KSTP 1 AND KPER 2

end timestep


start timestep kper="2" kstp="1445" mode="normal"


 FMI SETTING BUDGET TERMS FOR KSTP 1445 AND KPER 2 TO BUDGET FILE TERMS FROM KSTP 1 AND KPER 2

 FMI SETTING HEAD FOR KSTP 1445 AND KPER 2 TO BINARY FILE HEADS FROM KSTP 1 AND KPER 2

 SFR-1 SETTING BUDGET TERMS FOR KSTP 1445 AND KPER 2 TO BUDGET FILE TERMS FROM KSTP 1 AND KPER 2

end timestep


start timestep kper="2" kstp="1446" mode="normal"


 FMI SETTING BUDGET TERMS FOR KSTP 1446 AND KPER 2 TO BUDGET FILE TERMS FROM KSTP 1 AND KPER 2

 FMI SETTING HEAD FOR KSTP 1446 AND KPER 2 TO BINARY FILE HEADS FROM KSTP 1 AND KPER 2

 SFR-1 SETTING BUDGET TERMS FOR KSTP 1446 AND KPER 2 TO BUDGET FILE TERMS FROM KSTP 1 AND KPER 2

end timestep


start timestep kper="2" kstp="1447" mode="normal"


 FMI SETTING BUDGET TERMS FOR KSTP 1447 AND KPER 2 TO BUDGET FILE TERMS FROM KSTP 1 AND KPER 2

 FMI SETTING HEAD FOR KSTP 1447 AND KPER 2 TO BINARY FILE HEADS FROM KSTP 1 AND KPER 2

 SFR-1 SETTING BUDGET TERMS FOR KSTP 1447 AND KPER 2 TO BUDGET FILE TERMS FROM KSTP 1 AND KPER 2

end timestep


start timestep kper="2" kstp="1448" mode="normal"


 FMI SETTING BUDGET TERMS FOR KSTP 1448 AND KPER 2 TO BUDGET FILE TERMS FROM KSTP 1 AND KPER 2

 FMI SETTING HEAD FOR KSTP 1448 AND KPER 2 TO BINARY FILE HEADS FROM KSTP 1 AND KPER 2

 SFR-1 SETTING BUDGET TERMS FOR KSTP 1448 AND KPER 2 TO BUDGET FILE TERMS FROM KSTP 1 AND KPER 2

end timestep


start timestep kper="2" kstp="1449" mode="normal"


 FMI SETTING BUDGET TERMS FOR KSTP 1449 AND KPER 2 TO BUDGET FILE TERMS FROM KSTP 1 AND KPER 2

 FMI SETTING HEAD FOR KSTP 1449 AND KPER 2 TO BINARY FILE HEADS FROM KSTP 1 AND KPER 2

 SFR-1 SETTING BUDGET TERMS FOR KSTP 1449 AND KPER 2 TO BUDGET FILE TERMS FROM KSTP 1 AND KPER 2

end timestep


start timestep kper="2" kstp="1450" mode="normal"


 FMI SETTING BUDGET TERMS FOR KSTP 1450 AND KPER 2 TO BUDGET FILE TERMS FROM KSTP 1 AND KPER 2

 FMI SETTING HEAD FOR KSTP 1450 AND KPER 2 TO BINARY FILE HEADS FROM KSTP 1 AND KPER 2

 SFR-1 SETTING BUDGET TERMS FOR KSTP 1450 AND KPER 2 TO BUDGET FILE TERMS FROM KSTP 1 AND KPER 2

 CONCENTRATION WILL BE SAVED ON UNIT 1024 AT END OF TIME STEP 1450, STRESS PERIOD    2

end timestep


start timestep kper="2" kstp="1451" mode="normal"


 FMI SETTING BUDGET TERMS FOR KSTP 1451 AND KPER 2 TO BUDGET FILE TERMS FROM KSTP 1 AND KPER 2

 FMI SETTING HEAD FOR KSTP 1451 AND KPER 2 TO BINARY FILE HEADS FROM KSTP 1 AND KPER 2

 SFR-1 SETTING BUDGET TERMS FOR KSTP 1451 AND KPER 2 TO BUDGET FILE TERMS FROM KSTP 1 AND KPER 2

end timestep


start timestep kper="2" kstp="1452" mode="normal"


 FMI SETTING BUDGET TERMS FOR KSTP 1452 AND KPER 2 TO BUDGET FILE TERMS FROM KSTP 1 AND KPER 2

 FMI SETTING HEAD FOR KSTP 1452 AND KPER 2 TO BINARY FILE HEADS FROM KSTP 1 AND KPER 2

 SFR-1 SETTING BUDGET TERMS FOR KSTP 1452 AND KPER 2 TO BUDGET FILE TERMS FROM KSTP 1 AND KPER 2

end timestep


start timestep kper="2" kstp="1453" mode="normal"


 FMI SETTING BUDGET TERMS FOR KSTP 1453 AND KPER 2 TO BUDGET FILE TERMS FROM KSTP 1 AND KPER 2

 FMI SETTING HEAD FOR KSTP 1453 AND KPER 2 TO BINARY FILE HEADS FROM KSTP 1 AND KPER 2

 SFR-1 SETTING BUDGET TERMS FOR KSTP 1453 AND KPER 2 TO BUDGET FILE TERMS FROM KSTP 1 AND KPER 2

end timestep


start timestep kper="2" kstp="1454" mode="normal"


 FMI SETTING BUDGET TERMS FOR KSTP 1454 AND KPER 2 TO BUDGET FILE TERMS FROM KSTP 1 AND KPER 2

 FMI SETTING HEAD FOR KSTP 1454 AND KPER 2 TO BINARY FILE HEADS FROM KSTP 1 AND KPER 2

 SFR-1 SETTING BUDGET TERMS FOR KSTP 1454 AND KPER 2 TO BUDGET FILE TERMS FROM KSTP 1 AND KPER 2

end timestep


start timestep kper="2" kstp="1455" mode="normal"


 FMI SETTING BUDGET TERMS FOR KSTP 1455 AND KPER 2 TO BUDGET FILE TERMS FROM KSTP 1 AND KPER 2

 FMI SETTING HEAD FOR KSTP 1455 AND KPER 2 TO BINARY FILE HEADS FROM KSTP 1 AND KPER 2

 SFR-1 SETTING BUDGET TERMS FOR KSTP 1455 AND KPER 2 TO BUDGET FILE TERMS FROM KSTP 1 AND KPER 2

end timestep


start timestep kper="2" kstp="1456" mode="normal"


 FMI SETTING BUDGET TERMS FOR KSTP 1456 AND KPER 2 TO BUDGET FILE TERMS FROM KSTP 1 AND KPER 2

 FMI SETTING HEAD FOR KSTP 1456 AND KPER 2 TO BINARY FILE HEADS FROM KSTP 1 AND KPER 2

 SFR-1 SETTING BUDGET TERMS FOR KSTP 1456 AND KPER 2 TO BUDGET FILE TERMS FROM KSTP 1 AND KPER 2

end timestep


start timestep kper="2" kstp="1457" mode="normal"


 FMI SETTING BUDGET TERMS FOR KSTP 1457 AND KPER 2 TO BUDGET FILE TERMS FROM KSTP 1 AND KPER 2

 FMI SETTING HEAD FOR KSTP 1457 AND KPER 2 TO BINARY FILE HEADS FROM KSTP 1 AND KPER 2

 SFR-1 SETTING BUDGET TERMS FOR KSTP 1457 AND KPER 2 TO BUDGET FILE TERMS FROM KSTP 1 AND KPER 2

end timestep


start timestep kper="2" kstp="1458" mode="normal"


 FMI SETTING BUDGET TERMS FOR KSTP 1458 AND KPER 2 TO BUDGET FILE TERMS FROM KSTP 1 AND KPER 2

 FMI SETTING HEAD FOR KSTP 1458 AND KPER 2 TO BINARY FILE HEADS FROM KSTP 1 AND KPER 2

 SFR-1 SETTING BUDGET TERMS FOR KSTP 1458 AND KPER 2 TO BUDGET FILE TERMS FROM KSTP 1 AND KPER 2

end timestep


start timestep kper="2" kstp="1459" mode="normal"


 FMI SETTING BUDGET TERMS FOR KSTP 1459 AND KPER 2 TO BUDGET FILE TERMS FROM KSTP 1 AND KPER 2

 FMI SETTING HEAD FOR KSTP 1459 AND KPER 2 TO BINARY FILE HEADS FROM KSTP 1 AND KPER 2

 SFR-1 SETTING BUDGET TERMS FOR KSTP 1459 AND KPER 2 TO BUDGET FILE TERMS FROM KSTP 1 AND KPER 2

end timestep


start timestep kper="2" kstp="1460" mode="normal"


 FMI SETTING BUDGET TERMS FOR KSTP 1460 AND KPER 2 TO BUDGET FILE TERMS FROM KSTP 1 AND KPER 2

 FMI SETTING HEAD FOR KSTP 1460 AND KPER 2 TO BINARY FILE HEADS FROM KSTP 1 AND KPER 2

 SFR-1 SETTING BUDGET TERMS FOR KSTP 1460 AND KPER 2 TO BUDGET FILE TERMS FROM KSTP 1 AND KPER 2

 CONCENTRATION WILL BE SAVED ON UNIT 1024 AT END OF TIME STEP 1460, STRESS PERIOD    2

end timestep


start timestep kper="2" kstp="1461" mode="normal"


 FMI SETTING BUDGET TERMS FOR KSTP 1461 AND KPER 2 TO BUDGET FILE TERMS FROM KSTP 1 AND KPER 2

 FMI SETTING HEAD FOR KSTP 1461 AND KPER 2 TO BINARY FILE HEADS FROM KSTP 1 AND KPER 2

 SFR-1 SETTING BUDGET TERMS FOR KSTP 1461 AND KPER 2 TO BUDGET FILE TERMS FROM KSTP 1 AND KPER 2

end timestep


start timestep kper="2" kstp="1462" mode="normal"


 FMI SETTING BUDGET TERMS FOR KSTP 1462 AND KPER 2 TO BUDGET FILE TERMS FROM KSTP 1 AND KPER 2

 FMI SETTING HEAD FOR KSTP 1462 AND KPER 2 TO BINARY FILE HEADS FROM KSTP 1 AND KPER 2

 SFR-1 SETTING BUDGET TERMS FOR KSTP 1462 AND KPER 2 TO BUDGET FILE TERMS FROM KSTP 1 AND KPER 2

end timestep


start timestep kper="2" kstp="1463" mode="normal"


 FMI SETTING BUDGET TERMS FOR KSTP 1463 AND KPER 2 TO BUDGET FILE TERMS FROM KSTP 1 AND KPER 2

 FMI SETTING HEAD FOR KSTP 1463 AND KPER 2 TO BINARY FILE HEADS FROM KSTP 1 AND KPER 2

 SFR-1 SETTING BUDGET TERMS FOR KSTP 1463 AND KPER 2 TO BUDGET FILE TERMS FROM KSTP 1 AND KPER 2

end timestep


start timestep kper="2" kstp="1464" mode="normal"


 FMI SETTING BUDGET TERMS FOR KSTP 1464 AND KPER 2 TO BUDGET FILE TERMS FROM KSTP 1 AND KPER 2

 FMI SETTING HEAD FOR KSTP 1464 AND KPER 2 TO BINARY FILE HEADS FROM KSTP 1 AND KPER 2

 SFR-1 SETTING BUDGET TERMS FOR KSTP 1464 AND KPER 2 TO BUDGET FILE TERMS FROM KSTP 1 AND KPER 2

end timestep


start timestep kper="2" kstp="1465" mode="normal"


 FMI SETTING BUDGET TERMS FOR KSTP 1465 AND KPER 2 TO BUDGET FILE TERMS FROM KSTP 1 AND KPER 2

 FMI SETTING HEAD FOR KSTP 1465 AND KPER 2 TO BINARY FILE HEADS FROM KSTP 1 AND KPER 2

 SFR-1 SETTING BUDGET TERMS FOR KSTP 1465 AND KPER 2 TO BUDGET FILE TERMS FROM KSTP 1 AND KPER 2

end timestep


start timestep kper="2" kstp="1466" mode="normal"


 FMI SETTING BUDGET TERMS FOR KSTP 1466 AND KPER 2 TO BUDGET FILE TERMS FROM KSTP 1 AND KPER 2

 FMI SETTING HEAD FOR KSTP 1466 AND KPER 2 TO BINARY FILE HEADS FROM KSTP 1 AND KPER 2

 SFR-1 SETTING BUDGET TERMS FOR KSTP 1466 AND KPER 2 TO BUDGET FILE TERMS FROM KSTP 1 AND KPER 2

end timestep


start timestep kper="2" kstp="1467" mode="normal"


 FMI SETTING BUDGET TERMS FOR KSTP 1467 AND KPER 2 TO BUDGET FILE TERMS FROM KSTP 1 AND KPER 2

 FMI SETTING HEAD FOR KSTP 1467 AND KPER 2 TO BINARY FILE HEADS FROM KSTP 1 AND KPER 2

 SFR-1 SETTING BUDGET TERMS FOR KSTP 1467 AND KPER 2 TO BUDGET FILE TERMS FROM KSTP 1 AND KPER 2

end timestep


start timestep kper="2" kstp="1468" mode="normal"


 FMI SETTING BUDGET TERMS FOR KSTP 1468 AND KPER 2 TO BUDGET FILE TERMS FROM KSTP 1 AND KPER 2

 FMI SETTING HEAD FOR KSTP 1468 AND KPER 2 TO BINARY FILE HEADS FROM KSTP 1 AND KPER 2

 SFR-1 SETTING BUDGET TERMS FOR KSTP 1468 AND KPER 2 TO BUDGET FILE TERMS FROM KSTP 1 AND KPER 2

end timestep


start timestep kper="2" kstp="1469" mode="normal"


 FMI SETTING BUDGET TERMS FOR KSTP 1469 AND KPER 2 TO BUDGET FILE TERMS FROM KSTP 1 AND KPER 2

 FMI SETTING HEAD FOR KSTP 1469 AND KPER 2 TO BINARY FILE HEADS FROM KSTP 1 AND KPER 2

 SFR-1 SETTING BUDGET TERMS FOR KSTP 1469 AND KPER 2 TO BUDGET FILE TERMS FROM KSTP 1 AND KPER 2

end timestep


start timestep kper="2" kstp="1470" mode="normal"


 FMI SETTING BUDGET TERMS FOR KSTP 1470 AND KPER 2 TO BUDGET FILE TERMS FROM KSTP 1 AND KPER 2

 FMI SETTING HEAD FOR KSTP 1470 AND KPER 2 TO BINARY FILE HEADS FROM KSTP 1 AND KPER 2

 SFR-1 SETTING BUDGET TERMS FOR KSTP 1470 AND KPER 2 TO BUDGET FILE TERMS FROM KSTP 1 AND KPER 2

 CONCENTRATION WILL BE SAVED ON UNIT 1024 AT END OF TIME STEP 1470, STRESS PERIOD    2

end timestep


start timestep kper="2" kstp="1471" mode="normal"


 FMI SETTING BUDGET TERMS FOR KSTP 1471 AND KPER 2 TO BUDGET FILE TERMS FROM KSTP 1 AND KPER 2

 FMI SETTING HEAD FOR KSTP 1471 AND KPER 2 TO BINARY FILE HEADS FROM KSTP 1 AND KPER 2

 SFR-1 SETTING BUDGET TERMS FOR KSTP 1471 AND KPER 2 TO BUDGET FILE TERMS FROM KSTP 1 AND KPER 2

end timestep


start timestep kper="2" kstp="1472" mode="normal"


 FMI SETTING BUDGET TERMS FOR KSTP 1472 AND KPER 2 TO BUDGET FILE TERMS FROM KSTP 1 AND KPER 2

 FMI SETTING HEAD FOR KSTP 1472 AND KPER 2 TO BINARY FILE HEADS FROM KSTP 1 AND KPER 2

 SFR-1 SETTING BUDGET TERMS FOR KSTP 1472 AND KPER 2 TO BUDGET FILE TERMS FROM KSTP 1 AND KPER 2

end timestep


start timestep kper="2" kstp="1473" mode="normal"


 FMI SETTING BUDGET TERMS FOR KSTP 1473 AND KPER 2 TO BUDGET FILE TERMS FROM KSTP 1 AND KPER 2

 FMI SETTING HEAD FOR KSTP 1473 AND KPER 2 TO BINARY FILE HEADS FROM KSTP 1 AND KPER 2

 SFR-1 SETTING BUDGET TERMS FOR KSTP 1473 AND KPER 2 TO BUDGET FILE TERMS FROM KSTP 1 AND KPER 2

end timestep


start timestep kper="2" kstp="1474" mode="normal"


 FMI SETTING BUDGET TERMS FOR KSTP 1474 AND KPER 2 TO BUDGET FILE TERMS FROM KSTP 1 AND KPER 2

 FMI SETTING HEAD FOR KSTP 1474 AND KPER 2 TO BINARY FILE HEADS FROM KSTP 1 AND KPER 2

 SFR-1 SETTING BUDGET TERMS FOR KSTP 1474 AND KPER 2 TO BUDGET FILE TERMS FROM KSTP 1 AND KPER 2

end timestep


start timestep kper="2" kstp="1475" mode="normal"


 FMI SETTING BUDGET TERMS FOR KSTP 1475 AND KPER 2 TO BUDGET FILE TERMS FROM KSTP 1 AND KPER 2

 FMI SETTING HEAD FOR KSTP 1475 AND KPER 2 TO BINARY FILE HEADS FROM KSTP 1 AND KPER 2

 SFR-1 SETTING BUDGET TERMS FOR KSTP 1475 AND KPER 2 TO BUDGET FILE TERMS FROM KSTP 1 AND KPER 2

end timestep


start timestep kper="2" kstp="1476" mode="normal"


 FMI SETTING BUDGET TERMS FOR KSTP 1476 AND KPER 2 TO BUDGET FILE TERMS FROM KSTP 1 AND KPER 2

 FMI SETTING HEAD FOR KSTP 1476 AND KPER 2 TO BINARY FILE HEADS FROM KSTP 1 AND KPER 2

 SFR-1 SETTING BUDGET TERMS FOR KSTP 1476 AND KPER 2 TO BUDGET FILE TERMS FROM KSTP 1 AND KPER 2

end timestep


start timestep kper="2" kstp="1477" mode="normal"


 FMI SETTING BUDGET TERMS FOR KSTP 1477 AND KPER 2 TO BUDGET FILE TERMS FROM KSTP 1 AND KPER 2

 FMI SETTING HEAD FOR KSTP 1477 AND KPER 2 TO BINARY FILE HEADS FROM KSTP 1 AND KPER 2

 SFR-1 SETTING BUDGET TERMS FOR KSTP 1477 AND KPER 2 TO BUDGET FILE TERMS FROM KSTP 1 AND KPER 2

end timestep


start timestep kper="2" kstp="1478" mode="normal"


 FMI SETTING BUDGET TERMS FOR KSTP 1478 AND KPER 2 TO BUDGET FILE TERMS FROM KSTP 1 AND KPER 2

 FMI SETTING HEAD FOR KSTP 1478 AND KPER 2 TO BINARY FILE HEADS FROM KSTP 1 AND KPER 2

 SFR-1 SETTING BUDGET TERMS FOR KSTP 1478 AND KPER 2 TO BUDGET FILE TERMS FROM KSTP 1 AND KPER 2

end timestep


start timestep kper="2" kstp="1479" mode="normal"


 FMI SETTING BUDGET TERMS FOR KSTP 1479 AND KPER 2 TO BUDGET FILE TERMS FROM KSTP 1 AND KPER 2

 FMI SETTING HEAD FOR KSTP 1479 AND KPER 2 TO BINARY FILE HEADS FROM KSTP 1 AND KPER 2

 SFR-1 SETTING BUDGET TERMS FOR KSTP 1479 AND KPER 2 TO BUDGET FILE TERMS FROM KSTP 1 AND KPER 2

end timestep


start timestep kper="2" kstp="1480" mode="normal"


 FMI SETTING BUDGET TERMS FOR KSTP 1480 AND KPER 2 TO BUDGET FILE TERMS FROM KSTP 1 AND KPER 2

 FMI SETTING HEAD FOR KSTP 1480 AND KPER 2 TO BINARY FILE HEADS FROM KSTP 1 AND KPER 2

 SFR-1 SETTING BUDGET TERMS FOR KSTP 1480 AND KPER 2 TO BUDGET FILE TERMS FROM KSTP 1 AND KPER 2

 CONCENTRATION WILL BE SAVED ON UNIT 1024 AT END OF TIME STEP 1480, STRESS PERIOD    2

end timestep


start timestep kper="2" kstp="1481" mode="normal"


 FMI SETTING BUDGET TERMS FOR KSTP 1481 AND KPER 2 TO BUDGET FILE TERMS FROM KSTP 1 AND KPER 2

 FMI SETTING HEAD FOR KSTP 1481 AND KPER 2 TO BINARY FILE HEADS FROM KSTP 1 AND KPER 2

 SFR-1 SETTING BUDGET TERMS FOR KSTP 1481 AND KPER 2 TO BUDGET FILE TERMS FROM KSTP 1 AND KPER 2

end timestep


start timestep kper="2" kstp="1482" mode="normal"


 FMI SETTING BUDGET TERMS FOR KSTP 1482 AND KPER 2 TO BUDGET FILE TERMS FROM KSTP 1 AND KPER 2

 FMI SETTING HEAD FOR KSTP 1482 AND KPER 2 TO BINARY FILE HEADS FROM KSTP 1 AND KPER 2

 SFR-1 SETTING BUDGET TERMS FOR KSTP 1482 AND KPER 2 TO BUDGET FILE TERMS FROM KSTP 1 AND KPER 2

end timestep


start timestep kper="2" kstp="1483" mode="normal"


 FMI SETTING BUDGET TERMS FOR KSTP 1483 AND KPER 2 TO BUDGET FILE TERMS FROM KSTP 1 AND KPER 2

 FMI SETTING HEAD FOR KSTP 1483 AND KPER 2 TO BINARY FILE HEADS FROM KSTP 1 AND KPER 2

 SFR-1 SETTING BUDGET TERMS FOR KSTP 1483 AND KPER 2 TO BUDGET FILE TERMS FROM KSTP 1 AND KPER 2

end timestep


start timestep kper="2" kstp="1484" mode="normal"


 FMI SETTING BUDGET TERMS FOR KSTP 1484 AND KPER 2 TO BUDGET FILE TERMS FROM KSTP 1 AND KPER 2

 FMI SETTING HEAD FOR KSTP 1484 AND KPER 2 TO BINARY FILE HEADS FROM KSTP 1 AND KPER 2

 SFR-1 SETTING BUDGET TERMS FOR KSTP 1484 AND KPER 2 TO BUDGET FILE TERMS FROM KSTP 1 AND KPER 2

end timestep


start timestep kper="2" kstp="1485" mode="normal"


 FMI SETTING BUDGET TERMS FOR KSTP 1485 AND KPER 2 TO BUDGET FILE TERMS FROM KSTP 1 AND KPER 2

 FMI SETTING HEAD FOR KSTP 1485 AND KPER 2 TO BINARY FILE HEADS FROM KSTP 1 AND KPER 2

 SFR-1 SETTING BUDGET TERMS FOR KSTP 1485 AND KPER 2 TO BUDGET FILE TERMS FROM KSTP 1 AND KPER 2

end timestep


start timestep kper="2" kstp="1486" mode="normal"


 FMI SETTING BUDGET TERMS FOR KSTP 1486 AND KPER 2 TO BUDGET FILE TERMS FROM KSTP 1 AND KPER 2

 FMI SETTING HEAD FOR KSTP 1486 AND KPER 2 TO BINARY FILE HEADS FROM KSTP 1 AND KPER 2

 SFR-1 SETTING BUDGET TERMS FOR KSTP 1486 AND KPER 2 TO BUDGET FILE TERMS FROM KSTP 1 AND KPER 2

end timestep


start timestep kper="2" kstp="1487" mode="normal"


 FMI SETTING BUDGET TERMS FOR KSTP 1487 AND KPER 2 TO BUDGET FILE TERMS FROM KSTP 1 AND KPER 2

 FMI SETTING HEAD FOR KSTP 1487 AND KPER 2 TO BINARY FILE HEADS FROM KSTP 1 AND KPER 2

 SFR-1 SETTING BUDGET TERMS FOR KSTP 1487 AND KPER 2 TO BUDGET FILE TERMS FROM KSTP 1 AND KPER 2

end timestep


start timestep kper="2" kstp="1488" mode="normal"


 FMI SETTING BUDGET TERMS FOR KSTP 1488 AND KPER 2 TO BUDGET FILE TERMS FROM KSTP 1 AND KPER 2

 FMI SETTING HEAD FOR KSTP 1488 AND KPER 2 TO BINARY FILE HEADS FROM KSTP 1 AND KPER 2

 SFR-1 SETTING BUDGET TERMS FOR KSTP 1488 AND KPER 2 TO BUDGET FILE TERMS FROM KSTP 1 AND KPER 2

end timestep


start timestep kper="2" kstp="1489" mode="normal"


 FMI SETTING BUDGET TERMS FOR KSTP 1489 AND KPER 2 TO BUDGET FILE TERMS FROM KSTP 1 AND KPER 2

 FMI SETTING HEAD FOR KSTP 1489 AND KPER 2 TO BINARY FILE HEADS FROM KSTP 1 AND KPER 2

 SFR-1 SETTING BUDGET TERMS FOR KSTP 1489 AND KPER 2 TO BUDGET FILE TERMS FROM KSTP 1 AND KPER 2

end timestep


start timestep kper="2" kstp="1490" mode="normal"


 FMI SETTING BUDGET TERMS FOR KSTP 1490 AND KPER 2 TO BUDGET FILE TERMS FROM KSTP 1 AND KPER 2

 FMI SETTING HEAD FOR KSTP 1490 AND KPER 2 TO BINARY FILE HEADS FROM KSTP 1 AND KPER 2

 SFR-1 SETTING BUDGET TERMS FOR KSTP 1490 AND KPER 2 TO BUDGET FILE TERMS FROM KSTP 1 AND KPER 2

 CONCENTRATION WILL BE SAVED ON UNIT 1024 AT END OF TIME STEP 1490, STRESS PERIOD    2

end timestep


start timestep kper="2" kstp="1491" mode="normal"


 FMI SETTING BUDGET TERMS FOR KSTP 1491 AND KPER 2 TO BUDGET FILE TERMS FROM KSTP 1 AND KPER 2

 FMI SETTING HEAD FOR KSTP 1491 AND KPER 2 TO BINARY FILE HEADS FROM KSTP 1 AND KPER 2

 SFR-1 SETTING BUDGET TERMS FOR KSTP 1491 AND KPER 2 TO BUDGET FILE TERMS FROM KSTP 1 AND KPER 2

end timestep


start timestep kper="2" kstp="1492" mode="normal"


 FMI SETTING BUDGET TERMS FOR KSTP 1492 AND KPER 2 TO BUDGET FILE TERMS FROM KSTP 1 AND KPER 2

 FMI SETTING HEAD FOR KSTP 1492 AND KPER 2 TO BINARY FILE HEADS FROM KSTP 1 AND KPER 2

 SFR-1 SETTING BUDGET TERMS FOR KSTP 1492 AND KPER 2 TO BUDGET FILE TERMS FROM KSTP 1 AND KPER 2

end timestep


start timestep kper="2" kstp="1493" mode="normal"


 FMI SETTING BUDGET TERMS FOR KSTP 1493 AND KPER 2 TO BUDGET FILE TERMS FROM KSTP 1 AND KPER 2

 FMI SETTING HEAD FOR KSTP 1493 AND KPER 2 TO BINARY FILE HEADS FROM KSTP 1 AND KPER 2

 SFR-1 SETTING BUDGET TERMS FOR KSTP 1493 AND KPER 2 TO BUDGET FILE TERMS FROM KSTP 1 AND KPER 2

end timestep


start timestep kper="2" kstp="1494" mode="normal"


 FMI SETTING BUDGET TERMS FOR KSTP 1494 AND KPER 2 TO BUDGET FILE TERMS FROM KSTP 1 AND KPER 2

 FMI SETTING HEAD FOR KSTP 1494 AND KPER 2 TO BINARY FILE HEADS FROM KSTP 1 AND KPER 2

 SFR-1 SETTING BUDGET TERMS FOR KSTP 1494 AND KPER 2 TO BUDGET FILE TERMS FROM KSTP 1 AND KPER 2

end timestep


start timestep kper="2" kstp="1495" mode="normal"


 FMI SETTING BUDGET TERMS FOR KSTP 1495 AND KPER 2 TO BUDGET FILE TERMS FROM KSTP 1 AND KPER 2

 FMI SETTING HEAD FOR KSTP 1495 AND KPER 2 TO BINARY FILE HEADS FROM KSTP 1 AND KPER 2

 SFR-1 SETTING BUDGET TERMS FOR KSTP 1495 AND KPER 2 TO BUDGET FILE TERMS FROM KSTP 1 AND KPER 2

end timestep


start timestep kper="2" kstp="1496" mode="normal"


 FMI SETTING BUDGET TERMS FOR KSTP 1496 AND KPER 2 TO BUDGET FILE TERMS FROM KSTP 1 AND KPER 2

 FMI SETTING HEAD FOR KSTP 1496 AND KPER 2 TO BINARY FILE HEADS FROM KSTP 1 AND KPER 2

 SFR-1 SETTING BUDGET TERMS FOR KSTP 1496 AND KPER 2 TO BUDGET FILE TERMS FROM KSTP 1 AND KPER 2

end timestep


start timestep kper="2" kstp="1497" mode="normal"


 FMI SETTING BUDGET TERMS FOR KSTP 1497 AND KPER 2 TO BUDGET FILE TERMS FROM KSTP 1 AND KPER 2

 FMI SETTING HEAD FOR KSTP 1497 AND KPER 2 TO BINARY FILE HEADS FROM KSTP 1 AND KPER 2

 SFR-1 SETTING BUDGET TERMS FOR KSTP 1497 AND KPER 2 TO BUDGET FILE TERMS FROM KSTP 1 AND KPER 2

end timestep


start timestep kper="2" kstp="1498" mode="normal"


 FMI SETTING BUDGET TERMS FOR KSTP 1498 AND KPER 2 TO BUDGET FILE TERMS FROM KSTP 1 AND KPER 2

 FMI SETTING HEAD FOR KSTP 1498 AND KPER 2 TO BINARY FILE HEADS FROM KSTP 1 AND KPER 2

 SFR-1 SETTING BUDGET TERMS FOR KSTP 1498 AND KPER 2 TO BUDGET FILE TERMS FROM KSTP 1 AND KPER 2

end timestep


start timestep kper="2" kstp="1499" mode="normal"


 FMI SETTING BUDGET TERMS FOR KSTP 1499 AND KPER 2 TO BUDGET FILE TERMS FROM KSTP 1 AND KPER 2

 FMI SETTING HEAD FOR KSTP 1499 AND KPER 2 TO BINARY FILE HEADS FROM KSTP 1 AND KPER 2

 SFR-1 SETTING BUDGET TERMS FOR KSTP 1499 AND KPER 2 TO BUDGET FILE TERMS FROM KSTP 1 AND KPER 2

end timestep


start timestep kper="2" kstp="1500" mode="normal"


 FMI SETTING BUDGET TERMS FOR KSTP 1500 AND KPER 2 TO BUDGET FILE TERMS FROM KSTP 1 AND KPER 2

 FMI SETTING HEAD FOR KSTP 1500 AND KPER 2 TO BINARY FILE HEADS FROM KSTP 1 AND KPER 2

 SFR-1 SETTING BUDGET TERMS FOR KSTP 1500 AND KPER 2 TO BUDGET FILE TERMS FROM KSTP 1 AND KPER 2

 CONCENTRATION WILL BE SAVED ON UNIT 1024 AT END OF TIME STEP 1500, STRESS PERIOD    2

end timestep


start timestep kper="2" kstp="1501" mode="normal"


 FMI SETTING BUDGET TERMS FOR KSTP 1501 AND KPER 2 TO BUDGET FILE TERMS FROM KSTP 1 AND KPER 2

 FMI SETTING HEAD FOR KSTP 1501 AND KPER 2 TO BINARY FILE HEADS FROM KSTP 1 AND KPER 2

 SFR-1 SETTING BUDGET TERMS FOR KSTP 1501 AND KPER 2 TO BUDGET FILE TERMS FROM KSTP 1 AND KPER 2

end timestep


start timestep kper="2" kstp="1502" mode="normal"


 FMI SETTING BUDGET TERMS FOR KSTP 1502 AND KPER 2 TO BUDGET FILE TERMS FROM KSTP 1 AND KPER 2

 FMI SETTING HEAD FOR KSTP 1502 AND KPER 2 TO BINARY FILE HEADS FROM KSTP 1 AND KPER 2

 SFR-1 SETTING BUDGET TERMS FOR KSTP 1502 AND KPER 2 TO BUDGET FILE TERMS FROM KSTP 1 AND KPER 2

end timestep


start timestep kper="2" kstp="1503" mode="normal"


 FMI SETTING BUDGET TERMS FOR KSTP 1503 AND KPER 2 TO BUDGET FILE TERMS FROM KSTP 1 AND KPER 2

 FMI SETTING HEAD FOR KSTP 1503 AND KPER 2 TO BINARY FILE HEADS FROM KSTP 1 AND KPER 2

 SFR-1 SETTING BUDGET TERMS FOR KSTP 1503 AND KPER 2 TO BUDGET FILE TERMS FROM KSTP 1 AND KPER 2

end timestep


start timestep kper="2" kstp="1504" mode="normal"


 FMI SETTING BUDGET TERMS FOR KSTP 1504 AND KPER 2 TO BUDGET FILE TERMS FROM KSTP 1 AND KPER 2

 FMI SETTING HEAD FOR KSTP 1504 AND KPER 2 TO BINARY FILE HEADS FROM KSTP 1 AND KPER 2

 SFR-1 SETTING BUDGET TERMS FOR KSTP 1504 AND KPER 2 TO BUDGET FILE TERMS FROM KSTP 1 AND KPER 2

end timestep


start timestep kper="2" kstp="1505" mode="normal"


 FMI SETTING BUDGET TERMS FOR KSTP 1505 AND KPER 2 TO BUDGET FILE TERMS FROM KSTP 1 AND KPER 2

 FMI SETTING HEAD FOR KSTP 1505 AND KPER 2 TO BINARY FILE HEADS FROM KSTP 1 AND KPER 2

 SFR-1 SETTING BUDGET TERMS FOR KSTP 1505 AND KPER 2 TO BUDGET FILE TERMS FROM KSTP 1 AND KPER 2

end timestep


start timestep kper="2" kstp="1506" mode="normal"


 FMI SETTING BUDGET TERMS FOR KSTP 1506 AND KPER 2 TO BUDGET FILE TERMS FROM KSTP 1 AND KPER 2

 FMI SETTING HEAD FOR KSTP 1506 AND KPER 2 TO BINARY FILE HEADS FROM KSTP 1 AND KPER 2

 SFR-1 SETTING BUDGET TERMS FOR KSTP 1506 AND KPER 2 TO BUDGET FILE TERMS FROM KSTP 1 AND KPER 2

end timestep


start timestep kper="2" kstp="1507" mode="normal"


 FMI SETTING BUDGET TERMS FOR KSTP 1507 AND KPER 2 TO BUDGET FILE TERMS FROM KSTP 1 AND KPER 2

 FMI SETTING HEAD FOR KSTP 1507 AND KPER 2 TO BINARY FILE HEADS FROM KSTP 1 AND KPER 2

 SFR-1 SETTING BUDGET TERMS FOR KSTP 1507 AND KPER 2 TO BUDGET FILE TERMS FROM KSTP 1 AND KPER 2

end timestep


start timestep kper="2" kstp="1508" mode="normal"


 FMI SETTING BUDGET TERMS FOR KSTP 1508 AND KPER 2 TO BUDGET FILE TERMS FROM KSTP 1 AND KPER 2

 FMI SETTING HEAD FOR KSTP 1508 AND KPER 2 TO BINARY FILE HEADS FROM KSTP 1 AND KPER 2

 SFR-1 SETTING BUDGET TERMS FOR KSTP 1508 AND KPER 2 TO BUDGET FILE TERMS FROM KSTP 1 AND KPER 2

end timestep


start timestep kper="2" kstp="1509" mode="normal"


 FMI SETTING BUDGET TERMS FOR KSTP 1509 AND KPER 2 TO BUDGET FILE TERMS FROM KSTP 1 AND KPER 2

 FMI SETTING HEAD FOR KSTP 1509 AND KPER 2 TO BINARY FILE HEADS FROM KSTP 1 AND KPER 2

 SFR-1 SETTING BUDGET TERMS FOR KSTP 1509 AND KPER 2 TO BUDGET FILE TERMS FROM KSTP 1 AND KPER 2

end timestep


start timestep kper="2" kstp="1510" mode="normal"


 FMI SETTING BUDGET TERMS FOR KSTP 1510 AND KPER 2 TO BUDGET FILE TERMS FROM KSTP 1 AND KPER 2

 FMI SETTING HEAD FOR KSTP 1510 AND KPER 2 TO BINARY FILE HEADS FROM KSTP 1 AND KPER 2

 SFR-1 SETTING BUDGET TERMS FOR KSTP 1510 AND KPER 2 TO BUDGET FILE TERMS FROM KSTP 1 AND KPER 2

 CONCENTRATION WILL BE SAVED ON UNIT 1024 AT END OF TIME STEP 1510, STRESS PERIOD    2

end timestep


start timestep kper="2" kstp="1511" mode="normal"


 FMI SETTING BUDGET TERMS FOR KSTP 1511 AND KPER 2 TO BUDGET FILE TERMS FROM KSTP 1 AND KPER 2

 FMI SETTING HEAD FOR KSTP 1511 AND KPER 2 TO BINARY FILE HEADS FROM KSTP 1 AND KPER 2

 SFR-1 SETTING BUDGET TERMS FOR KSTP 1511 AND KPER 2 TO BUDGET FILE TERMS FROM KSTP 1 AND KPER 2

end timestep


start timestep kper="2" kstp="1512" mode="normal"


 FMI SETTING BUDGET TERMS FOR KSTP 1512 AND KPER 2 TO BUDGET FILE TERMS FROM KSTP 1 AND KPER 2

 FMI SETTING HEAD FOR KSTP 1512 AND KPER 2 TO BINARY FILE HEADS FROM KSTP 1 AND KPER 2

 SFR-1 SETTING BUDGET TERMS FOR KSTP 1512 AND KPER 2 TO BUDGET FILE TERMS FROM KSTP 1 AND KPER 2

end timestep


start timestep kper="2" kstp="1513" mode="normal"


 FMI SETTING BUDGET TERMS FOR KSTP 1513 AND KPER 2 TO BUDGET FILE TERMS FROM KSTP 1 AND KPER 2

 FMI SETTING HEAD FOR KSTP 1513 AND KPER 2 TO BINARY FILE HEADS FROM KSTP 1 AND KPER 2

 SFR-1 SETTING BUDGET TERMS FOR KSTP 1513 AND KPER 2 TO BUDGET FILE TERMS FROM KSTP 1 AND KPER 2

end timestep


start timestep kper="2" kstp="1514" mode="normal"


 FMI SETTING BUDGET TERMS FOR KSTP 1514 AND KPER 2 TO BUDGET FILE TERMS FROM KSTP 1 AND KPER 2

 FMI SETTING HEAD FOR KSTP 1514 AND KPER 2 TO BINARY FILE HEADS FROM KSTP 1 AND KPER 2

 SFR-1 SETTING BUDGET TERMS FOR KSTP 1514 AND KPER 2 TO BUDGET FILE TERMS FROM KSTP 1 AND KPER 2

end timestep


start timestep kper="2" kstp="1515" mode="normal"


 FMI SETTING BUDGET TERMS FOR KSTP 1515 AND KPER 2 TO BUDGET FILE TERMS FROM KSTP 1 AND KPER 2

 FMI SETTING HEAD FOR KSTP 1515 AND KPER 2 TO BINARY FILE HEADS FROM KSTP 1 AND KPER 2

 SFR-1 SETTING BUDGET TERMS FOR KSTP 1515 AND KPER 2 TO BUDGET FILE TERMS FROM KSTP 1 AND KPER 2

end timestep


start timestep kper="2" kstp="1516" mode="normal"


 FMI SETTING BUDGET TERMS FOR KSTP 1516 AND KPER 2 TO BUDGET FILE TERMS FROM KSTP 1 AND KPER 2

 FMI SETTING HEAD FOR KSTP 1516 AND KPER 2 TO BINARY FILE HEADS FROM KSTP 1 AND KPER 2

 SFR-1 SETTING BUDGET TERMS FOR KSTP 1516 AND KPER 2 TO BUDGET FILE TERMS FROM KSTP 1 AND KPER 2

end timestep


start timestep kper="2" kstp="1517" mode="normal"


 FMI SETTING BUDGET TERMS FOR KSTP 1517 AND KPER 2 TO BUDGET FILE TERMS FROM KSTP 1 AND KPER 2

 FMI SETTING HEAD FOR KSTP 1517 AND KPER 2 TO BINARY FILE HEADS FROM KSTP 1 AND KPER 2

 SFR-1 SETTING BUDGET TERMS FOR KSTP 1517 AND KPER 2 TO BUDGET FILE TERMS FROM KSTP 1 AND KPER 2

end timestep


start timestep kper="2" kstp="1518" mode="normal"


 FMI SETTING BUDGET TERMS FOR KSTP 1518 AND KPER 2 TO BUDGET FILE TERMS FROM KSTP 1 AND KPER 2

 FMI SETTING HEAD FOR KSTP 1518 AND KPER 2 TO BINARY FILE HEADS FROM KSTP 1 AND KPER 2

 SFR-1 SETTING BUDGET TERMS FOR KSTP 1518 AND KPER 2 TO BUDGET FILE TERMS FROM KSTP 1 AND KPER 2

end timestep


start timestep kper="2" kstp="1519" mode="normal"


 FMI SETTING BUDGET TERMS FOR KSTP 1519 AND KPER 2 TO BUDGET FILE TERMS FROM KSTP 1 AND KPER 2

 FMI SETTING HEAD FOR KSTP 1519 AND KPER 2 TO BINARY FILE HEADS FROM KSTP 1 AND KPER 2

 SFR-1 SETTING BUDGET TERMS FOR KSTP 1519 AND KPER 2 TO BUDGET FILE TERMS FROM KSTP 1 AND KPER 2

end timestep


start timestep kper="2" kstp="1520" mode="normal"


 FMI SETTING BUDGET TERMS FOR KSTP 1520 AND KPER 2 TO BUDGET FILE TERMS FROM KSTP 1 AND KPER 2

 FMI SETTING HEAD FOR KSTP 1520 AND KPER 2 TO BINARY FILE HEADS FROM KSTP 1 AND KPER 2

 SFR-1 SETTING BUDGET TERMS FOR KSTP 1520 AND KPER 2 TO BUDGET FILE TERMS FROM KSTP 1 AND KPER 2

 CONCENTRATION WILL BE SAVED ON UNIT 1024 AT END OF TIME STEP 1520, STRESS PERIOD    2

end timestep


start timestep kper="2" kstp="1521" mode="normal"


 FMI SETTING BUDGET TERMS FOR KSTP 1521 AND KPER 2 TO BUDGET FILE TERMS FROM KSTP 1 AND KPER 2

 FMI SETTING HEAD FOR KSTP 1521 AND KPER 2 TO BINARY FILE HEADS FROM KSTP 1 AND KPER 2

 SFR-1 SETTING BUDGET TERMS FOR KSTP 1521 AND KPER 2 TO BUDGET FILE TERMS FROM KSTP 1 AND KPER 2

end timestep


start timestep kper="2" kstp="1522" mode="normal"


 FMI SETTING BUDGET TERMS FOR KSTP 1522 AND KPER 2 TO BUDGET FILE TERMS FROM KSTP 1 AND KPER 2

 FMI SETTING HEAD FOR KSTP 1522 AND KPER 2 TO BINARY FILE HEADS FROM KSTP 1 AND KPER 2

 SFR-1 SETTING BUDGET TERMS FOR KSTP 1522 AND KPER 2 TO BUDGET FILE TERMS FROM KSTP 1 AND KPER 2

end timestep


start timestep kper="2" kstp="1523" mode="normal"


 FMI SETTING BUDGET TERMS FOR KSTP 1523 AND KPER 2 TO BUDGET FILE TERMS FROM KSTP 1 AND KPER 2

 FMI SETTING HEAD FOR KSTP 1523 AND KPER 2 TO BINARY FILE HEADS FROM KSTP 1 AND KPER 2

 SFR-1 SETTING BUDGET TERMS FOR KSTP 1523 AND KPER 2 TO BUDGET FILE TERMS FROM KSTP 1 AND KPER 2

end timestep


start timestep kper="2" kstp="1524" mode="normal"


 FMI SETTING BUDGET TERMS FOR KSTP 1524 AND KPER 2 TO BUDGET FILE TERMS FROM KSTP 1 AND KPER 2

 FMI SETTING HEAD FOR KSTP 1524 AND KPER 2 TO BINARY FILE HEADS FROM KSTP 1 AND KPER 2

 SFR-1 SETTING BUDGET TERMS FOR KSTP 1524 AND KPER 2 TO BUDGET FILE TERMS FROM KSTP 1 AND KPER 2

end timestep


start timestep kper="2" kstp="1525" mode="normal"


 FMI SETTING BUDGET TERMS FOR KSTP 1525 AND KPER 2 TO BUDGET FILE TERMS FROM KSTP 1 AND KPER 2

 FMI SETTING HEAD FOR KSTP 1525 AND KPER 2 TO BINARY FILE HEADS FROM KSTP 1 AND KPER 2

 SFR-1 SETTING BUDGET TERMS FOR KSTP 1525 AND KPER 2 TO BUDGET FILE TERMS FROM KSTP 1 AND KPER 2

end timestep


start timestep kper="2" kstp="1526" mode="normal"


 FMI SETTING BUDGET TERMS FOR KSTP 1526 AND KPER 2 TO BUDGET FILE TERMS FROM KSTP 1 AND KPER 2

 FMI SETTING HEAD FOR KSTP 1526 AND KPER 2 TO BINARY FILE HEADS FROM KSTP 1 AND KPER 2

 SFR-1 SETTING BUDGET TERMS FOR KSTP 1526 AND KPER 2 TO BUDGET FILE TERMS FROM KSTP 1 AND KPER 2

end timestep


start timestep kper="2" kstp="1527" mode="normal"


 FMI SETTING BUDGET TERMS FOR KSTP 1527 AND KPER 2 TO BUDGET FILE TERMS FROM KSTP 1 AND KPER 2

 FMI SETTING HEAD FOR KSTP 1527 AND KPER 2 TO BINARY FILE HEADS FROM KSTP 1 AND KPER 2

 SFR-1 SETTING BUDGET TERMS FOR KSTP 1527 AND KPER 2 TO BUDGET FILE TERMS FROM KSTP 1 AND KPER 2

end timestep


start timestep kper="2" kstp="1528" mode="normal"


 FMI SETTING BUDGET TERMS FOR KSTP 1528 AND KPER 2 TO BUDGET FILE TERMS FROM KSTP 1 AND KPER 2

 FMI SETTING HEAD FOR KSTP 1528 AND KPER 2 TO BINARY FILE HEADS FROM KSTP 1 AND KPER 2

 SFR-1 SETTING BUDGET TERMS FOR KSTP 1528 AND KPER 2 TO BUDGET FILE TERMS FROM KSTP 1 AND KPER 2

end timestep


start timestep kper="2" kstp="1529" mode="normal"


 FMI SETTING BUDGET TERMS FOR KSTP 1529 AND KPER 2 TO BUDGET FILE TERMS FROM KSTP 1 AND KPER 2

 FMI SETTING HEAD FOR KSTP 1529 AND KPER 2 TO BINARY FILE HEADS FROM KSTP 1 AND KPER 2

 SFR-1 SETTING BUDGET TERMS FOR KSTP 1529 AND KPER 2 TO BUDGET FILE TERMS FROM KSTP 1 AND KPER 2

end timestep


start timestep kper="2" kstp="1530" mode="normal"


 FMI SETTING BUDGET TERMS FOR KSTP 1530 AND KPER 2 TO BUDGET FILE TERMS FROM KSTP 1 AND KPER 2

 FMI SETTING HEAD FOR KSTP 1530 AND KPER 2 TO BINARY FILE HEADS FROM KSTP 1 AND KPER 2

 SFR-1 SETTING BUDGET TERMS FOR KSTP 1530 AND KPER 2 TO BUDGET FILE TERMS FROM KSTP 1 AND KPER 2

 CONCENTRATION WILL BE SAVED ON UNIT 1024 AT END OF TIME STEP 1530, STRESS PERIOD    2

end timestep


start timestep kper="2" kstp="1531" mode="normal"


 FMI SETTING BUDGET TERMS FOR KSTP 1531 AND KPER 2 TO BUDGET FILE TERMS FROM KSTP 1 AND KPER 2

 FMI SETTING HEAD FOR KSTP 1531 AND KPER 2 TO BINARY FILE HEADS FROM KSTP 1 AND KPER 2

 SFR-1 SETTING BUDGET TERMS FOR KSTP 1531 AND KPER 2 TO BUDGET FILE TERMS FROM KSTP 1 AND KPER 2

end timestep


start timestep kper="2" kstp="1532" mode="normal"


 FMI SETTING BUDGET TERMS FOR KSTP 1532 AND KPER 2 TO BUDGET FILE TERMS FROM KSTP 1 AND KPER 2

 FMI SETTING HEAD FOR KSTP 1532 AND KPER 2 TO BINARY FILE HEADS FROM KSTP 1 AND KPER 2

 SFR-1 SETTING BUDGET TERMS FOR KSTP 1532 AND KPER 2 TO BUDGET FILE TERMS FROM KSTP 1 AND KPER 2

end timestep


start timestep kper="2" kstp="1533" mode="normal"


 FMI SETTING BUDGET TERMS FOR KSTP 1533 AND KPER 2 TO BUDGET FILE TERMS FROM KSTP 1 AND KPER 2

 FMI SETTING HEAD FOR KSTP 1533 AND KPER 2 TO BINARY FILE HEADS FROM KSTP 1 AND KPER 2

 SFR-1 SETTING BUDGET TERMS FOR KSTP 1533 AND KPER 2 TO BUDGET FILE TERMS FROM KSTP 1 AND KPER 2

end timestep


start timestep kper="2" kstp="1534" mode="normal"


 FMI SETTING BUDGET TERMS FOR KSTP 1534 AND KPER 2 TO BUDGET FILE TERMS FROM KSTP 1 AND KPER 2

 FMI SETTING HEAD FOR KSTP 1534 AND KPER 2 TO BINARY FILE HEADS FROM KSTP 1 AND KPER 2

 SFR-1 SETTING BUDGET TERMS FOR KSTP 1534 AND KPER 2 TO BUDGET FILE TERMS FROM KSTP 1 AND KPER 2

end timestep


start timestep kper="2" kstp="1535" mode="normal"


 FMI SETTING BUDGET TERMS FOR KSTP 1535 AND KPER 2 TO BUDGET FILE TERMS FROM KSTP 1 AND KPER 2

 FMI SETTING HEAD FOR KSTP 1535 AND KPER 2 TO BINARY FILE HEADS FROM KSTP 1 AND KPER 2

 SFR-1 SETTING BUDGET TERMS FOR KSTP 1535 AND KPER 2 TO BUDGET FILE TERMS FROM KSTP 1 AND KPER 2

end timestep


start timestep kper="2" kstp="1536" mode="normal"


 FMI SETTING BUDGET TERMS FOR KSTP 1536 AND KPER 2 TO BUDGET FILE TERMS FROM KSTP 1 AND KPER 2

 FMI SETTING HEAD FOR KSTP 1536 AND KPER 2 TO BINARY FILE HEADS FROM KSTP 1 AND KPER 2

 SFR-1 SETTING BUDGET TERMS FOR KSTP 1536 AND KPER 2 TO BUDGET FILE TERMS FROM KSTP 1 AND KPER 2

end timestep


start timestep kper="2" kstp="1537" mode="normal"


 FMI SETTING BUDGET TERMS FOR KSTP 1537 AND KPER 2 TO BUDGET FILE TERMS FROM KSTP 1 AND KPER 2

 FMI SETTING HEAD FOR KSTP 1537 AND KPER 2 TO BINARY FILE HEADS FROM KSTP 1 AND KPER 2

 SFR-1 SETTING BUDGET TERMS FOR KSTP 1537 AND KPER 2 TO BUDGET FILE TERMS FROM KSTP 1 AND KPER 2

end timestep


start timestep kper="2" kstp="1538" mode="normal"


 FMI SETTING BUDGET TERMS FOR KSTP 1538 AND KPER 2 TO BUDGET FILE TERMS FROM KSTP 1 AND KPER 2

 FMI SETTING HEAD FOR KSTP 1538 AND KPER 2 TO BINARY FILE HEADS FROM KSTP 1 AND KPER 2

 SFR-1 SETTING BUDGET TERMS FOR KSTP 1538 AND KPER 2 TO BUDGET FILE TERMS FROM KSTP 1 AND KPER 2

end timestep


start timestep kper="2" kstp="1539" mode="normal"


 FMI SETTING BUDGET TERMS FOR KSTP 1539 AND KPER 2 TO BUDGET FILE TERMS FROM KSTP 1 AND KPER 2

 FMI SETTING HEAD FOR KSTP 1539 AND KPER 2 TO BINARY FILE HEADS FROM KSTP 1 AND KPER 2

 SFR-1 SETTING BUDGET TERMS FOR KSTP 1539 AND KPER 2 TO BUDGET FILE TERMS FROM KSTP 1 AND KPER 2

end timestep


start timestep kper="2" kstp="1540" mode="normal"


 FMI SETTING BUDGET TERMS FOR KSTP 1540 AND KPER 2 TO BUDGET FILE TERMS FROM KSTP 1 AND KPER 2

 FMI SETTING HEAD FOR KSTP 1540 AND KPER 2 TO BINARY FILE HEADS FROM KSTP 1 AND KPER 2

 SFR-1 SETTING BUDGET TERMS FOR KSTP 1540 AND KPER 2 TO BUDGET FILE TERMS FROM KSTP 1 AND KPER 2

 CONCENTRATION WILL BE SAVED ON UNIT 1024 AT END OF TIME STEP 1540, STRESS PERIOD    2

end timestep


start timestep kper="2" kstp="1541" mode="normal"


 FMI SETTING BUDGET TERMS FOR KSTP 1541 AND KPER 2 TO BUDGET FILE TERMS FROM KSTP 1 AND KPER 2

 FMI SETTING HEAD FOR KSTP 1541 AND KPER 2 TO BINARY FILE HEADS FROM KSTP 1 AND KPER 2

 SFR-1 SETTING BUDGET TERMS FOR KSTP 1541 AND KPER 2 TO BUDGET FILE TERMS FROM KSTP 1 AND KPER 2

end timestep


start timestep kper="2" kstp="1542" mode="normal"


 FMI SETTING BUDGET TERMS FOR KSTP 1542 AND KPER 2 TO BUDGET FILE TERMS FROM KSTP 1 AND KPER 2

 FMI SETTING HEAD FOR KSTP 1542 AND KPER 2 TO BINARY FILE HEADS FROM KSTP 1 AND KPER 2

 SFR-1 SETTING BUDGET TERMS FOR KSTP 1542 AND KPER 2 TO BUDGET FILE TERMS FROM KSTP 1 AND KPER 2

end timestep


start timestep kper="2" kstp="1543" mode="normal"


 FMI SETTING BUDGET TERMS FOR KSTP 1543 AND KPER 2 TO BUDGET FILE TERMS FROM KSTP 1 AND KPER 2

 FMI SETTING HEAD FOR KSTP 1543 AND KPER 2 TO BINARY FILE HEADS FROM KSTP 1 AND KPER 2

 SFR-1 SETTING BUDGET TERMS FOR KSTP 1543 AND KPER 2 TO BUDGET FILE TERMS FROM KSTP 1 AND KPER 2

end timestep


start timestep kper="2" kstp="1544" mode="normal"


 FMI SETTING BUDGET TERMS FOR KSTP 1544 AND KPER 2 TO BUDGET FILE TERMS FROM KSTP 1 AND KPER 2

 FMI SETTING HEAD FOR KSTP 1544 AND KPER 2 TO BINARY FILE HEADS FROM KSTP 1 AND KPER 2

 SFR-1 SETTING BUDGET TERMS FOR KSTP 1544 AND KPER 2 TO BUDGET FILE TERMS FROM KSTP 1 AND KPER 2

end timestep


start timestep kper="2" kstp="1545" mode="normal"


 FMI SETTING BUDGET TERMS FOR KSTP 1545 AND KPER 2 TO BUDGET FILE TERMS FROM KSTP 1 AND KPER 2

 FMI SETTING HEAD FOR KSTP 1545 AND KPER 2 TO BINARY FILE HEADS FROM KSTP 1 AND KPER 2

 SFR-1 SETTING BUDGET TERMS FOR KSTP 1545 AND KPER 2 TO BUDGET FILE TERMS FROM KSTP 1 AND KPER 2

end timestep


start timestep kper="2" kstp="1546" mode="normal"


 FMI SETTING BUDGET TERMS FOR KSTP 1546 AND KPER 2 TO BUDGET FILE TERMS FROM KSTP 1 AND KPER 2

 FMI SETTING HEAD FOR KSTP 1546 AND KPER 2 TO BINARY FILE HEADS FROM KSTP 1 AND KPER 2

 SFR-1 SETTING BUDGET TERMS FOR KSTP 1546 AND KPER 2 TO BUDGET FILE TERMS FROM KSTP 1 AND KPER 2

end timestep


start timestep kper="2" kstp="1547" mode="normal"


 FMI SETTING BUDGET TERMS FOR KSTP 1547 AND KPER 2 TO BUDGET FILE TERMS FROM KSTP 1 AND KPER 2

 FMI SETTING HEAD FOR KSTP 1547 AND KPER 2 TO BINARY FILE HEADS FROM KSTP 1 AND KPER 2

 SFR-1 SETTING BUDGET TERMS FOR KSTP 1547 AND KPER 2 TO BUDGET FILE TERMS FROM KSTP 1 AND KPER 2

end timestep


start timestep kper="2" kstp="1548" mode="normal"


 FMI SETTING BUDGET TERMS FOR KSTP 1548 AND KPER 2 TO BUDGET FILE TERMS FROM KSTP 1 AND KPER 2

 FMI SETTING HEAD FOR KSTP 1548 AND KPER 2 TO BINARY FILE HEADS FROM KSTP 1 AND KPER 2

 SFR-1 SETTING BUDGET TERMS FOR KSTP 1548 AND KPER 2 TO BUDGET FILE TERMS FROM KSTP 1 AND KPER 2

end timestep


start timestep kper="2" kstp="1549" mode="normal"


 FMI SETTING BUDGET TERMS FOR KSTP 1549 AND KPER 2 TO BUDGET FILE TERMS FROM KSTP 1 AND KPER 2

 FMI SETTING HEAD FOR KSTP 1549 AND KPER 2 TO BINARY FILE HEADS FROM KSTP 1 AND KPER 2

 SFR-1 SETTING BUDGET TERMS FOR KSTP 1549 AND KPER 2 TO BUDGET FILE TERMS FROM KSTP 1 AND KPER 2

end timestep


start timestep kper="2" kstp="1550" mode="normal"


 FMI SETTING BUDGET TERMS FOR KSTP 1550 AND KPER 2 TO BUDGET FILE TERMS FROM KSTP 1 AND KPER 2

 FMI SETTING HEAD FOR KSTP 1550 AND KPER 2 TO BINARY FILE HEADS FROM KSTP 1 AND KPER 2

 SFR-1 SETTING BUDGET TERMS FOR KSTP 1550 AND KPER 2 TO BUDGET FILE TERMS FROM KSTP 1 AND KPER 2

 CONCENTRATION WILL BE SAVED ON UNIT 1024 AT END OF TIME STEP 1550, STRESS PERIOD    2

end timestep


start timestep kper="2" kstp="1551" mode="normal"


 FMI SETTING BUDGET TERMS FOR KSTP 1551 AND KPER 2 TO BUDGET FILE TERMS FROM KSTP 1 AND KPER 2

 FMI SETTING HEAD FOR KSTP 1551 AND KPER 2 TO BINARY FILE HEADS FROM KSTP 1 AND KPER 2

 SFR-1 SETTING BUDGET TERMS FOR KSTP 1551 AND KPER 2 TO BUDGET FILE TERMS FROM KSTP 1 AND KPER 2

end timestep


start timestep kper="2" kstp="1552" mode="normal"


 FMI SETTING BUDGET TERMS FOR KSTP 1552 AND KPER 2 TO BUDGET FILE TERMS FROM KSTP 1 AND KPER 2

 FMI SETTING HEAD FOR KSTP 1552 AND KPER 2 TO BINARY FILE HEADS FROM KSTP 1 AND KPER 2

 SFR-1 SETTING BUDGET TERMS FOR KSTP 1552 AND KPER 2 TO BUDGET FILE TERMS FROM KSTP 1 AND KPER 2

end timestep


start timestep kper="2" kstp="1553" mode="normal"


 FMI SETTING BUDGET TERMS FOR KSTP 1553 AND KPER 2 TO BUDGET FILE TERMS FROM KSTP 1 AND KPER 2

 FMI SETTING HEAD FOR KSTP 1553 AND KPER 2 TO BINARY FILE HEADS FROM KSTP 1 AND KPER 2

 SFR-1 SETTING BUDGET TERMS FOR KSTP 1553 AND KPER 2 TO BUDGET FILE TERMS FROM KSTP 1 AND KPER 2

end timestep


start timestep kper="2" kstp="1554" mode="normal"


 FMI SETTING BUDGET TERMS FOR KSTP 1554 AND KPER 2 TO BUDGET FILE TERMS FROM KSTP 1 AND KPER 2

 FMI SETTING HEAD FOR KSTP 1554 AND KPER 2 TO BINARY FILE HEADS FROM KSTP 1 AND KPER 2

 SFR-1 SETTING BUDGET TERMS FOR KSTP 1554 AND KPER 2 TO BUDGET FILE TERMS FROM KSTP 1 AND KPER 2

end timestep


start timestep kper="2" kstp="1555" mode="normal"


 FMI SETTING BUDGET TERMS FOR KSTP 1555 AND KPER 2 TO BUDGET FILE TERMS FROM KSTP 1 AND KPER 2

 FMI SETTING HEAD FOR KSTP 1555 AND KPER 2 TO BINARY FILE HEADS FROM KSTP 1 AND KPER 2

 SFR-1 SETTING BUDGET TERMS FOR KSTP 1555 AND KPER 2 TO BUDGET FILE TERMS FROM KSTP 1 AND KPER 2

end timestep


start timestep kper="2" kstp="1556" mode="normal"


 FMI SETTING BUDGET TERMS FOR KSTP 1556 AND KPER 2 TO BUDGET FILE TERMS FROM KSTP 1 AND KPER 2

 FMI SETTING HEAD FOR KSTP 1556 AND KPER 2 TO BINARY FILE HEADS FROM KSTP 1 AND KPER 2

 SFR-1 SETTING BUDGET TERMS FOR KSTP 1556 AND KPER 2 TO BUDGET FILE TERMS FROM KSTP 1 AND KPER 2

end timestep


start timestep kper="2" kstp="1557" mode="normal"


 FMI SETTING BUDGET TERMS FOR KSTP 1557 AND KPER 2 TO BUDGET FILE TERMS FROM KSTP 1 AND KPER 2

 FMI SETTING HEAD FOR KSTP 1557 AND KPER 2 TO BINARY FILE HEADS FROM KSTP 1 AND KPER 2

 SFR-1 SETTING BUDGET TERMS FOR KSTP 1557 AND KPER 2 TO BUDGET FILE TERMS FROM KSTP 1 AND KPER 2

end timestep


start timestep kper="2" kstp="1558" mode="normal"


 FMI SETTING BUDGET TERMS FOR KSTP 1558 AND KPER 2 TO BUDGET FILE TERMS FROM KSTP 1 AND KPER 2

 FMI SETTING HEAD FOR KSTP 1558 AND KPER 2 TO BINARY FILE HEADS FROM KSTP 1 AND KPER 2

 SFR-1 SETTING BUDGET TERMS FOR KSTP 1558 AND KPER 2 TO BUDGET FILE TERMS FROM KSTP 1 AND KPER 2

end timestep


start timestep kper="2" kstp="1559" mode="normal"


 FMI SETTING BUDGET TERMS FOR KSTP 1559 AND KPER 2 TO BUDGET FILE TERMS FROM KSTP 1 AND KPER 2

 FMI SETTING HEAD FOR KSTP 1559 AND KPER 2 TO BINARY FILE HEADS FROM KSTP 1 AND KPER 2

 SFR-1 SETTING BUDGET TERMS FOR KSTP 1559 AND KPER 2 TO BUDGET FILE TERMS FROM KSTP 1 AND KPER 2

end timestep


start timestep kper="2" kstp="1560" mode="normal"


 FMI SETTING BUDGET TERMS FOR KSTP 1560 AND KPER 2 TO BUDGET FILE TERMS FROM KSTP 1 AND KPER 2

 FMI SETTING HEAD FOR KSTP 1560 AND KPER 2 TO BINARY FILE HEADS FROM KSTP 1 AND KPER 2

 SFR-1 SETTING BUDGET TERMS FOR KSTP 1560 AND KPER 2 TO BUDGET FILE TERMS FROM KSTP 1 AND KPER 2

 CONCENTRATION WILL BE SAVED ON UNIT 1024 AT END OF TIME STEP 1560, STRESS PERIOD    2

end timestep


start timestep kper="2" kstp="1561" mode="normal"


 FMI SETTING BUDGET TERMS FOR KSTP 1561 AND KPER 2 TO BUDGET FILE TERMS FROM KSTP 1 AND KPER 2

 FMI SETTING HEAD FOR KSTP 1561 AND KPER 2 TO BINARY FILE HEADS FROM KSTP 1 AND KPER 2

 SFR-1 SETTING BUDGET TERMS FOR KSTP 1561 AND KPER 2 TO BUDGET FILE TERMS FROM KSTP 1 AND KPER 2

end timestep


start timestep kper="2" kstp="1562" mode="normal"


 FMI SETTING BUDGET TERMS FOR KSTP 1562 AND KPER 2 TO BUDGET FILE TERMS FROM KSTP 1 AND KPER 2

 FMI SETTING HEAD FOR KSTP 1562 AND KPER 2 TO BINARY FILE HEADS FROM KSTP 1 AND KPER 2

 SFR-1 SETTING BUDGET TERMS FOR KSTP 1562 AND KPER 2 TO BUDGET FILE TERMS FROM KSTP 1 AND KPER 2

end timestep


start timestep kper="2" kstp="1563" mode="normal"


 FMI SETTING BUDGET TERMS FOR KSTP 1563 AND KPER 2 TO BUDGET FILE TERMS FROM KSTP 1 AND KPER 2

 FMI SETTING HEAD FOR KSTP 1563 AND KPER 2 TO BINARY FILE HEADS FROM KSTP 1 AND KPER 2

 SFR-1 SETTING BUDGET TERMS FOR KSTP 1563 AND KPER 2 TO BUDGET FILE TERMS FROM KSTP 1 AND KPER 2

end timestep


start timestep kper="2" kstp="1564" mode="normal"


 FMI SETTING BUDGET TERMS FOR KSTP 1564 AND KPER 2 TO BUDGET FILE TERMS FROM KSTP 1 AND KPER 2

 FMI SETTING HEAD FOR KSTP 1564 AND KPER 2 TO BINARY FILE HEADS FROM KSTP 1 AND KPER 2

 SFR-1 SETTING BUDGET TERMS FOR KSTP 1564 AND KPER 2 TO BUDGET FILE TERMS FROM KSTP 1 AND KPER 2

end timestep


start timestep kper="2" kstp="1565" mode="normal"


 FMI SETTING BUDGET TERMS FOR KSTP 1565 AND KPER 2 TO BUDGET FILE TERMS FROM KSTP 1 AND KPER 2

 FMI SETTING HEAD FOR KSTP 1565 AND KPER 2 TO BINARY FILE HEADS FROM KSTP 1 AND KPER 2

 SFR-1 SETTING BUDGET TERMS FOR KSTP 1565 AND KPER 2 TO BUDGET FILE TERMS FROM KSTP 1 AND KPER 2

end timestep


start timestep kper="2" kstp="1566" mode="normal"


 FMI SETTING BUDGET TERMS FOR KSTP 1566 AND KPER 2 TO BUDGET FILE TERMS FROM KSTP 1 AND KPER 2

 FMI SETTING HEAD FOR KSTP 1566 AND KPER 2 TO BINARY FILE HEADS FROM KSTP 1 AND KPER 2

 SFR-1 SETTING BUDGET TERMS FOR KSTP 1566 AND KPER 2 TO BUDGET FILE TERMS FROM KSTP 1 AND KPER 2

end timestep


start timestep kper="2" kstp="1567" mode="normal"


 FMI SETTING BUDGET TERMS FOR KSTP 1567 AND KPER 2 TO BUDGET FILE TERMS FROM KSTP 1 AND KPER 2

 FMI SETTING HEAD FOR KSTP 1567 AND KPER 2 TO BINARY FILE HEADS FROM KSTP 1 AND KPER 2

 SFR-1 SETTING BUDGET TERMS FOR KSTP 1567 AND KPER 2 TO BUDGET FILE TERMS FROM KSTP 1 AND KPER 2

end timestep


start timestep kper="2" kstp="1568" mode="normal"


 FMI SETTING BUDGET TERMS FOR KSTP 1568 AND KPER 2 TO BUDGET FILE TERMS FROM KSTP 1 AND KPER 2

 FMI SETTING HEAD FOR KSTP 1568 AND KPER 2 TO BINARY FILE HEADS FROM KSTP 1 AND KPER 2

 SFR-1 SETTING BUDGET TERMS FOR KSTP 1568 AND KPER 2 TO BUDGET FILE TERMS FROM KSTP 1 AND KPER 2

end timestep


start timestep kper="2" kstp="1569" mode="normal"


 FMI SETTING BUDGET TERMS FOR KSTP 1569 AND KPER 2 TO BUDGET FILE TERMS FROM KSTP 1 AND KPER 2

 FMI SETTING HEAD FOR KSTP 1569 AND KPER 2 TO BINARY FILE HEADS FROM KSTP 1 AND KPER 2

 SFR-1 SETTING BUDGET TERMS FOR KSTP 1569 AND KPER 2 TO BUDGET FILE TERMS FROM KSTP 1 AND KPER 2

end timestep


start timestep kper="2" kstp="1570" mode="normal"


 FMI SETTING BUDGET TERMS FOR KSTP 1570 AND KPER 2 TO BUDGET FILE TERMS FROM KSTP 1 AND KPER 2

 FMI SETTING HEAD FOR KSTP 1570 AND KPER 2 TO BINARY FILE HEADS FROM KSTP 1 AND KPER 2

 SFR-1 SETTING BUDGET TERMS FOR KSTP 1570 AND KPER 2 TO BUDGET FILE TERMS FROM KSTP 1 AND KPER 2

 CONCENTRATION WILL BE SAVED ON UNIT 1024 AT END OF TIME STEP 1570, STRESS PERIOD    2

end timestep


start timestep kper="2" kstp="1571" mode="normal"


 FMI SETTING BUDGET TERMS FOR KSTP 1571 AND KPER 2 TO BUDGET FILE TERMS FROM KSTP 1 AND KPER 2

 FMI SETTING HEAD FOR KSTP 1571 AND KPER 2 TO BINARY FILE HEADS FROM KSTP 1 AND KPER 2

 SFR-1 SETTING BUDGET TERMS FOR KSTP 1571 AND KPER 2 TO BUDGET FILE TERMS FROM KSTP 1 AND KPER 2

end timestep


start timestep kper="2" kstp="1572" mode="normal"


 FMI SETTING BUDGET TERMS FOR KSTP 1572 AND KPER 2 TO BUDGET FILE TERMS FROM KSTP 1 AND KPER 2

 FMI SETTING HEAD FOR KSTP 1572 AND KPER 2 TO BINARY FILE HEADS FROM KSTP 1 AND KPER 2

 SFR-1 SETTING BUDGET TERMS FOR KSTP 1572 AND KPER 2 TO BUDGET FILE TERMS FROM KSTP 1 AND KPER 2

end timestep


start timestep kper="2" kstp="1573" mode="normal"


 FMI SETTING BUDGET TERMS FOR KSTP 1573 AND KPER 2 TO BUDGET FILE TERMS FROM KSTP 1 AND KPER 2

 FMI SETTING HEAD FOR KSTP 1573 AND KPER 2 TO BINARY FILE HEADS FROM KSTP 1 AND KPER 2

 SFR-1 SETTING BUDGET TERMS FOR KSTP 1573 AND KPER 2 TO BUDGET FILE TERMS FROM KSTP 1 AND KPER 2

end timestep


start timestep kper="2" kstp="1574" mode="normal"


 FMI SETTING BUDGET TERMS FOR KSTP 1574 AND KPER 2 TO BUDGET FILE TERMS FROM KSTP 1 AND KPER 2

 FMI SETTING HEAD FOR KSTP 1574 AND KPER 2 TO BINARY FILE HEADS FROM KSTP 1 AND KPER 2

 SFR-1 SETTING BUDGET TERMS FOR KSTP 1574 AND KPER 2 TO BUDGET FILE TERMS FROM KSTP 1 AND KPER 2

end timestep


start timestep kper="2" kstp="1575" mode="normal"


 FMI SETTING BUDGET TERMS FOR KSTP 1575 AND KPER 2 TO BUDGET FILE TERMS FROM KSTP 1 AND KPER 2

 FMI SETTING HEAD FOR KSTP 1575 AND KPER 2 TO BINARY FILE HEADS FROM KSTP 1 AND KPER 2

 SFR-1 SETTING BUDGET TERMS FOR KSTP 1575 AND KPER 2 TO BUDGET FILE TERMS FROM KSTP 1 AND KPER 2

end timestep


start timestep kper="2" kstp="1576" mode="normal"


 FMI SETTING BUDGET TERMS FOR KSTP 1576 AND KPER 2 TO BUDGET FILE TERMS FROM KSTP 1 AND KPER 2

 FMI SETTING HEAD FOR KSTP 1576 AND KPER 2 TO BINARY FILE HEADS FROM KSTP 1 AND KPER 2

 SFR-1 SETTING BUDGET TERMS FOR KSTP 1576 AND KPER 2 TO BUDGET FILE TERMS FROM KSTP 1 AND KPER 2

end timestep


start timestep kper="2" kstp="1577" mode="normal"


 FMI SETTING BUDGET TERMS FOR KSTP 1577 AND KPER 2 TO BUDGET FILE TERMS FROM KSTP 1 AND KPER 2

 FMI SETTING HEAD FOR KSTP 1577 AND KPER 2 TO BINARY FILE HEADS FROM KSTP 1 AND KPER 2

 SFR-1 SETTING BUDGET TERMS FOR KSTP 1577 AND KPER 2 TO BUDGET FILE TERMS FROM KSTP 1 AND KPER 2

end timestep


start timestep kper="2" kstp="1578" mode="normal"


 FMI SETTING BUDGET TERMS FOR KSTP 1578 AND KPER 2 TO BUDGET FILE TERMS FROM KSTP 1 AND KPER 2

 FMI SETTING HEAD FOR KSTP 1578 AND KPER 2 TO BINARY FILE HEADS FROM KSTP 1 AND KPER 2

 SFR-1 SETTING BUDGET TERMS FOR KSTP 1578 AND KPER 2 TO BUDGET FILE TERMS FROM KSTP 1 AND KPER 2

end timestep


start timestep kper="2" kstp="1579" mode="normal"


 FMI SETTING BUDGET TERMS FOR KSTP 1579 AND KPER 2 TO BUDGET FILE TERMS FROM KSTP 1 AND KPER 2

 FMI SETTING HEAD FOR KSTP 1579 AND KPER 2 TO BINARY FILE HEADS FROM KSTP 1 AND KPER 2

 SFR-1 SETTING BUDGET TERMS FOR KSTP 1579 AND KPER 2 TO BUDGET FILE TERMS FROM KSTP 1 AND KPER 2

end timestep


start timestep kper="2" kstp="1580" mode="normal"


 FMI SETTING BUDGET TERMS FOR KSTP 1580 AND KPER 2 TO BUDGET FILE TERMS FROM KSTP 1 AND KPER 2

 FMI SETTING HEAD FOR KSTP 1580 AND KPER 2 TO BINARY FILE HEADS FROM KSTP 1 AND KPER 2

 SFR-1 SETTING BUDGET TERMS FOR KSTP 1580 AND KPER 2 TO BUDGET FILE TERMS FROM KSTP 1 AND KPER 2

 CONCENTRATION WILL BE SAVED ON UNIT 1024 AT END OF TIME STEP 1580, STRESS PERIOD    2

end timestep


start timestep kper="2" kstp="1581" mode="normal"


 FMI SETTING BUDGET TERMS FOR KSTP 1581 AND KPER 2 TO BUDGET FILE TERMS FROM KSTP 1 AND KPER 2

 FMI SETTING HEAD FOR KSTP 1581 AND KPER 2 TO BINARY FILE HEADS FROM KSTP 1 AND KPER 2

 SFR-1 SETTING BUDGET TERMS FOR KSTP 1581 AND KPER 2 TO BUDGET FILE TERMS FROM KSTP 1 AND KPER 2

end timestep


start timestep kper="2" kstp="1582" mode="normal"


 FMI SETTING BUDGET TERMS FOR KSTP 1582 AND KPER 2 TO BUDGET FILE TERMS FROM KSTP 1 AND KPER 2

 FMI SETTING HEAD FOR KSTP 1582 AND KPER 2 TO BINARY FILE HEADS FROM KSTP 1 AND KPER 2

 SFR-1 SETTING BUDGET TERMS FOR KSTP 1582 AND KPER 2 TO BUDGET FILE TERMS FROM KSTP 1 AND KPER 2

end timestep


start timestep kper="2" kstp="1583" mode="normal"


 FMI SETTING BUDGET TERMS FOR KSTP 1583 AND KPER 2 TO BUDGET FILE TERMS FROM KSTP 1 AND KPER 2

 FMI SETTING HEAD FOR KSTP 1583 AND KPER 2 TO BINARY FILE HEADS FROM KSTP 1 AND KPER 2

 SFR-1 SETTING BUDGET TERMS FOR KSTP 1583 AND KPER 2 TO BUDGET FILE TERMS FROM KSTP 1 AND KPER 2

end timestep


start timestep kper="2" kstp="1584" mode="normal"


 FMI SETTING BUDGET TERMS FOR KSTP 1584 AND KPER 2 TO BUDGET FILE TERMS FROM KSTP 1 AND KPER 2

 FMI SETTING HEAD FOR KSTP 1584 AND KPER 2 TO BINARY FILE HEADS FROM KSTP 1 AND KPER 2

 SFR-1 SETTING BUDGET TERMS FOR KSTP 1584 AND KPER 2 TO BUDGET FILE TERMS FROM KSTP 1 AND KPER 2

end timestep


start timestep kper="2" kstp="1585" mode="normal"


 FMI SETTING BUDGET TERMS FOR KSTP 1585 AND KPER 2 TO BUDGET FILE TERMS FROM KSTP 1 AND KPER 2

 FMI SETTING HEAD FOR KSTP 1585 AND KPER 2 TO BINARY FILE HEADS FROM KSTP 1 AND KPER 2

 SFR-1 SETTING BUDGET TERMS FOR KSTP 1585 AND KPER 2 TO BUDGET FILE TERMS FROM KSTP 1 AND KPER 2

end timestep


start timestep kper="2" kstp="1586" mode="normal"


 FMI SETTING BUDGET TERMS FOR KSTP 1586 AND KPER 2 TO BUDGET FILE TERMS FROM KSTP 1 AND KPER 2

 FMI SETTING HEAD FOR KSTP 1586 AND KPER 2 TO BINARY FILE HEADS FROM KSTP 1 AND KPER 2

 SFR-1 SETTING BUDGET TERMS FOR KSTP 1586 AND KPER 2 TO BUDGET FILE TERMS FROM KSTP 1 AND KPER 2

end timestep


start timestep kper="2" kstp="1587" mode="normal"


 FMI SETTING BUDGET TERMS FOR KSTP 1587 AND KPER 2 TO BUDGET FILE TERMS FROM KSTP 1 AND KPER 2

 FMI SETTING HEAD FOR KSTP 1587 AND KPER 2 TO BINARY FILE HEADS FROM KSTP 1 AND KPER 2

 SFR-1 SETTING BUDGET TERMS FOR KSTP 1587 AND KPER 2 TO BUDGET FILE TERMS FROM KSTP 1 AND KPER 2

end timestep


start timestep kper="2" kstp="1588" mode="normal"


 FMI SETTING BUDGET TERMS FOR KSTP 1588 AND KPER 2 TO BUDGET FILE TERMS FROM KSTP 1 AND KPER 2

 FMI SETTING HEAD FOR KSTP 1588 AND KPER 2 TO BINARY FILE HEADS FROM KSTP 1 AND KPER 2

 SFR-1 SETTING BUDGET TERMS FOR KSTP 1588 AND KPER 2 TO BUDGET FILE TERMS FROM KSTP 1 AND KPER 2

end timestep


start timestep kper="2" kstp="1589" mode="normal"


 FMI SETTING BUDGET TERMS FOR KSTP 1589 AND KPER 2 TO BUDGET FILE TERMS FROM KSTP 1 AND KPER 2

 FMI SETTING HEAD FOR KSTP 1589 AND KPER 2 TO BINARY FILE HEADS FROM KSTP 1 AND KPER 2

 SFR-1 SETTING BUDGET TERMS FOR KSTP 1589 AND KPER 2 TO BUDGET FILE TERMS FROM KSTP 1 AND KPER 2

end timestep


start timestep kper="2" kstp="1590" mode="normal"


 FMI SETTING BUDGET TERMS FOR KSTP 1590 AND KPER 2 TO BUDGET FILE TERMS FROM KSTP 1 AND KPER 2

 FMI SETTING HEAD FOR KSTP 1590 AND KPER 2 TO BINARY FILE HEADS FROM KSTP 1 AND KPER 2

 SFR-1 SETTING BUDGET TERMS FOR KSTP 1590 AND KPER 2 TO BUDGET FILE TERMS FROM KSTP 1 AND KPER 2

 CONCENTRATION WILL BE SAVED ON UNIT 1024 AT END OF TIME STEP 1590, STRESS PERIOD    2

end timestep


start timestep kper="2" kstp="1591" mode="normal"


 FMI SETTING BUDGET TERMS FOR KSTP 1591 AND KPER 2 TO BUDGET FILE TERMS FROM KSTP 1 AND KPER 2

 FMI SETTING HEAD FOR KSTP 1591 AND KPER 2 TO BINARY FILE HEADS FROM KSTP 1 AND KPER 2

 SFR-1 SETTING BUDGET TERMS FOR KSTP 1591 AND KPER 2 TO BUDGET FILE TERMS FROM KSTP 1 AND KPER 2

end timestep


start timestep kper="2" kstp="1592" mode="normal"


 FMI SETTING BUDGET TERMS FOR KSTP 1592 AND KPER 2 TO BUDGET FILE TERMS FROM KSTP 1 AND KPER 2

 FMI SETTING HEAD FOR KSTP 1592 AND KPER 2 TO BINARY FILE HEADS FROM KSTP 1 AND KPER 2

 SFR-1 SETTING BUDGET TERMS FOR KSTP 1592 AND KPER 2 TO BUDGET FILE TERMS FROM KSTP 1 AND KPER 2

end timestep


start timestep kper="2" kstp="1593" mode="normal"


 FMI SETTING BUDGET TERMS FOR KSTP 1593 AND KPER 2 TO BUDGET FILE TERMS FROM KSTP 1 AND KPER 2

 FMI SETTING HEAD FOR KSTP 1593 AND KPER 2 TO BINARY FILE HEADS FROM KSTP 1 AND KPER 2

 SFR-1 SETTING BUDGET TERMS FOR KSTP 1593 AND KPER 2 TO BUDGET FILE TERMS FROM KSTP 1 AND KPER 2

end timestep


start timestep kper="2" kstp="1594" mode="normal"


 FMI SETTING BUDGET TERMS FOR KSTP 1594 AND KPER 2 TO BUDGET FILE TERMS FROM KSTP 1 AND KPER 2

 FMI SETTING HEAD FOR KSTP 1594 AND KPER 2 TO BINARY FILE HEADS FROM KSTP 1 AND KPER 2

 SFR-1 SETTING BUDGET TERMS FOR KSTP 1594 AND KPER 2 TO BUDGET FILE TERMS FROM KSTP 1 AND KPER 2

end timestep


start timestep kper="2" kstp="1595" mode="normal"


 FMI SETTING BUDGET TERMS FOR KSTP 1595 AND KPER 2 TO BUDGET FILE TERMS FROM KSTP 1 AND KPER 2

 FMI SETTING HEAD FOR KSTP 1595 AND KPER 2 TO BINARY FILE HEADS FROM KSTP 1 AND KPER 2

 SFR-1 SETTING BUDGET TERMS FOR KSTP 1595 AND KPER 2 TO BUDGET FILE TERMS FROM KSTP 1 AND KPER 2

end timestep


start timestep kper="2" kstp="1596" mode="normal"


 FMI SETTING BUDGET TERMS FOR KSTP 1596 AND KPER 2 TO BUDGET FILE TERMS FROM KSTP 1 AND KPER 2

 FMI SETTING HEAD FOR KSTP 1596 AND KPER 2 TO BINARY FILE HEADS FROM KSTP 1 AND KPER 2

 SFR-1 SETTING BUDGET TERMS FOR KSTP 1596 AND KPER 2 TO BUDGET FILE TERMS FROM KSTP 1 AND KPER 2

end timestep


start timestep kper="2" kstp="1597" mode="normal"


 FMI SETTING BUDGET TERMS FOR KSTP 1597 AND KPER 2 TO BUDGET FILE TERMS FROM KSTP 1 AND KPER 2

 FMI SETTING HEAD FOR KSTP 1597 AND KPER 2 TO BINARY FILE HEADS FROM KSTP 1 AND KPER 2

 SFR-1 SETTING BUDGET TERMS FOR KSTP 1597 AND KPER 2 TO BUDGET FILE TERMS FROM KSTP 1 AND KPER 2

end timestep


start timestep kper="2" kstp="1598" mode="normal"


 FMI SETTING BUDGET TERMS FOR KSTP 1598 AND KPER 2 TO BUDGET FILE TERMS FROM KSTP 1 AND KPER 2

 FMI SETTING HEAD FOR KSTP 1598 AND KPER 2 TO BINARY FILE HEADS FROM KSTP 1 AND KPER 2

 SFR-1 SETTING BUDGET TERMS FOR KSTP 1598 AND KPER 2 TO BUDGET FILE TERMS FROM KSTP 1 AND KPER 2

end timestep


start timestep kper="2" kstp="1599" mode="normal"


 FMI SETTING BUDGET TERMS FOR KSTP 1599 AND KPER 2 TO BUDGET FILE TERMS FROM KSTP 1 AND KPER 2

 FMI SETTING HEAD FOR KSTP 1599 AND KPER 2 TO BINARY FILE HEADS FROM KSTP 1 AND KPER 2

 SFR-1 SETTING BUDGET TERMS FOR KSTP 1599 AND KPER 2 TO BUDGET FILE TERMS FROM KSTP 1 AND KPER 2

end timestep


start timestep kper="2" kstp="1600" mode="normal"


 FMI SETTING BUDGET TERMS FOR KSTP 1600 AND KPER 2 TO BUDGET FILE TERMS FROM KSTP 1 AND KPER 2

 FMI SETTING HEAD FOR KSTP 1600 AND KPER 2 TO BINARY FILE HEADS FROM KSTP 1 AND KPER 2

 SFR-1 SETTING BUDGET TERMS FOR KSTP 1600 AND KPER 2 TO BUDGET FILE TERMS FROM KSTP 1 AND KPER 2

 CONCENTRATION WILL BE SAVED ON UNIT 1024 AT END OF TIME STEP 1600, STRESS PERIOD    2

end timestep


start timestep kper="2" kstp="1601" mode="normal"


 FMI SETTING BUDGET TERMS FOR KSTP 1601 AND KPER 2 TO BUDGET FILE TERMS FROM KSTP 1 AND KPER 2

 FMI SETTING HEAD FOR KSTP 1601 AND KPER 2 TO BINARY FILE HEADS FROM KSTP 1 AND KPER 2

 SFR-1 SETTING BUDGET TERMS FOR KSTP 1601 AND KPER 2 TO BUDGET FILE TERMS FROM KSTP 1 AND KPER 2

end timestep


start timestep kper="2" kstp="1602" mode="normal"


 FMI SETTING BUDGET TERMS FOR KSTP 1602 AND KPER 2 TO BUDGET FILE TERMS FROM KSTP 1 AND KPER 2

 FMI SETTING HEAD FOR KSTP 1602 AND KPER 2 TO BINARY FILE HEADS FROM KSTP 1 AND KPER 2

 SFR-1 SETTING BUDGET TERMS FOR KSTP 1602 AND KPER 2 TO BUDGET FILE TERMS FROM KSTP 1 AND KPER 2

end timestep


start timestep kper="2" kstp="1603" mode="normal"


 FMI SETTING BUDGET TERMS FOR KSTP 1603 AND KPER 2 TO BUDGET FILE TERMS FROM KSTP 1 AND KPER 2

 FMI SETTING HEAD FOR KSTP 1603 AND KPER 2 TO BINARY FILE HEADS FROM KSTP 1 AND KPER 2

 SFR-1 SETTING BUDGET TERMS FOR KSTP 1603 AND KPER 2 TO BUDGET FILE TERMS FROM KSTP 1 AND KPER 2

end timestep


start timestep kper="2" kstp="1604" mode="normal"


 FMI SETTING BUDGET TERMS FOR KSTP 1604 AND KPER 2 TO BUDGET FILE TERMS FROM KSTP 1 AND KPER 2

 FMI SETTING HEAD FOR KSTP 1604 AND KPER 2 TO BINARY FILE HEADS FROM KSTP 1 AND KPER 2

 SFR-1 SETTING BUDGET TERMS FOR KSTP 1604 AND KPER 2 TO BUDGET FILE TERMS FROM KSTP 1 AND KPER 2

end timestep


start timestep kper="2" kstp="1605" mode="normal"


 FMI SETTING BUDGET TERMS FOR KSTP 1605 AND KPER 2 TO BUDGET FILE TERMS FROM KSTP 1 AND KPER 2

 FMI SETTING HEAD FOR KSTP 1605 AND KPER 2 TO BINARY FILE HEADS FROM KSTP 1 AND KPER 2

 SFR-1 SETTING BUDGET TERMS FOR KSTP 1605 AND KPER 2 TO BUDGET FILE TERMS FROM KSTP 1 AND KPER 2

end timestep


start timestep kper="2" kstp="1606" mode="normal"


 FMI SETTING BUDGET TERMS FOR KSTP 1606 AND KPER 2 TO BUDGET FILE TERMS FROM KSTP 1 AND KPER 2

 FMI SETTING HEAD FOR KSTP 1606 AND KPER 2 TO BINARY FILE HEADS FROM KSTP 1 AND KPER 2

 SFR-1 SETTING BUDGET TERMS FOR KSTP 1606 AND KPER 2 TO BUDGET FILE TERMS FROM KSTP 1 AND KPER 2

end timestep


start timestep kper="2" kstp="1607" mode="normal"


 FMI SETTING BUDGET TERMS FOR KSTP 1607 AND KPER 2 TO BUDGET FILE TERMS FROM KSTP 1 AND KPER 2

 FMI SETTING HEAD FOR KSTP 1607 AND KPER 2 TO BINARY FILE HEADS FROM KSTP 1 AND KPER 2

 SFR-1 SETTING BUDGET TERMS FOR KSTP 1607 AND KPER 2 TO BUDGET FILE TERMS FROM KSTP 1 AND KPER 2

end timestep


start timestep kper="2" kstp="1608" mode="normal"


 FMI SETTING BUDGET TERMS FOR KSTP 1608 AND KPER 2 TO BUDGET FILE TERMS FROM KSTP 1 AND KPER 2

 FMI SETTING HEAD FOR KSTP 1608 AND KPER 2 TO BINARY FILE HEADS FROM KSTP 1 AND KPER 2

 SFR-1 SETTING BUDGET TERMS FOR KSTP 1608 AND KPER 2 TO BUDGET FILE TERMS FROM KSTP 1 AND KPER 2

end timestep


start timestep kper="2" kstp="1609" mode="normal"


 FMI SETTING BUDGET TERMS FOR KSTP 1609 AND KPER 2 TO BUDGET FILE TERMS FROM KSTP 1 AND KPER 2

 FMI SETTING HEAD FOR KSTP 1609 AND KPER 2 TO BINARY FILE HEADS FROM KSTP 1 AND KPER 2

 SFR-1 SETTING BUDGET TERMS FOR KSTP 1609 AND KPER 2 TO BUDGET FILE TERMS FROM KSTP 1 AND KPER 2

end timestep


start timestep kper="2" kstp="1610" mode="normal"


 FMI SETTING BUDGET TERMS FOR KSTP 1610 AND KPER 2 TO BUDGET FILE TERMS FROM KSTP 1 AND KPER 2

 FMI SETTING HEAD FOR KSTP 1610 AND KPER 2 TO BINARY FILE HEADS FROM KSTP 1 AND KPER 2

 SFR-1 SETTING BUDGET TERMS FOR KSTP 1610 AND KPER 2 TO BUDGET FILE TERMS FROM KSTP 1 AND KPER 2

 CONCENTRATION WILL BE SAVED ON UNIT 1024 AT END OF TIME STEP 1610, STRESS PERIOD    2

end timestep


start timestep kper="2" kstp="1611" mode="normal"


 FMI SETTING BUDGET TERMS FOR KSTP 1611 AND KPER 2 TO BUDGET FILE TERMS FROM KSTP 1 AND KPER 2

 FMI SETTING HEAD FOR KSTP 1611 AND KPER 2 TO BINARY FILE HEADS FROM KSTP 1 AND KPER 2

 SFR-1 SETTING BUDGET TERMS FOR KSTP 1611 AND KPER 2 TO BUDGET FILE TERMS FROM KSTP 1 AND KPER 2

end timestep


start timestep kper="2" kstp="1612" mode="normal"


 FMI SETTING BUDGET TERMS FOR KSTP 1612 AND KPER 2 TO BUDGET FILE TERMS FROM KSTP 1 AND KPER 2

 FMI SETTING HEAD FOR KSTP 1612 AND KPER 2 TO BINARY FILE HEADS FROM KSTP 1 AND KPER 2

 SFR-1 SETTING BUDGET TERMS FOR KSTP 1612 AND KPER 2 TO BUDGET FILE TERMS FROM KSTP 1 AND KPER 2

end timestep


start timestep kper="2" kstp="1613" mode="normal"


 FMI SETTING BUDGET TERMS FOR KSTP 1613 AND KPER 2 TO BUDGET FILE TERMS FROM KSTP 1 AND KPER 2

 FMI SETTING HEAD FOR KSTP 1613 AND KPER 2 TO BINARY FILE HEADS FROM KSTP 1 AND KPER 2

 SFR-1 SETTING BUDGET TERMS FOR KSTP 1613 AND KPER 2 TO BUDGET FILE TERMS FROM KSTP 1 AND KPER 2

end timestep


start timestep kper="2" kstp="1614" mode="normal"


 FMI SETTING BUDGET TERMS FOR KSTP 1614 AND KPER 2 TO BUDGET FILE TERMS FROM KSTP 1 AND KPER 2

 FMI SETTING HEAD FOR KSTP 1614 AND KPER 2 TO BINARY FILE HEADS FROM KSTP 1 AND KPER 2

 SFR-1 SETTING BUDGET TERMS FOR KSTP 1614 AND KPER 2 TO BUDGET FILE TERMS FROM KSTP 1 AND KPER 2

end timestep


start timestep kper="2" kstp="1615" mode="normal"


 FMI SETTING BUDGET TERMS FOR KSTP 1615 AND KPER 2 TO BUDGET FILE TERMS FROM KSTP 1 AND KPER 2

 FMI SETTING HEAD FOR KSTP 1615 AND KPER 2 TO BINARY FILE HEADS FROM KSTP 1 AND KPER 2

 SFR-1 SETTING BUDGET TERMS FOR KSTP 1615 AND KPER 2 TO BUDGET FILE TERMS FROM KSTP 1 AND KPER 2

end timestep


start timestep kper="2" kstp="1616" mode="normal"


 FMI SETTING BUDGET TERMS FOR KSTP 1616 AND KPER 2 TO BUDGET FILE TERMS FROM KSTP 1 AND KPER 2

 FMI SETTING HEAD FOR KSTP 1616 AND KPER 2 TO BINARY FILE HEADS FROM KSTP 1 AND KPER 2

 SFR-1 SETTING BUDGET TERMS FOR KSTP 1616 AND KPER 2 TO BUDGET FILE TERMS FROM KSTP 1 AND KPER 2

end timestep


start timestep kper="2" kstp="1617" mode="normal"


 FMI SETTING BUDGET TERMS FOR KSTP 1617 AND KPER 2 TO BUDGET FILE TERMS FROM KSTP 1 AND KPER 2

 FMI SETTING HEAD FOR KSTP 1617 AND KPER 2 TO BINARY FILE HEADS FROM KSTP 1 AND KPER 2

 SFR-1 SETTING BUDGET TERMS FOR KSTP 1617 AND KPER 2 TO BUDGET FILE TERMS FROM KSTP 1 AND KPER 2

end timestep


start timestep kper="2" kstp="1618" mode="normal"


 FMI SETTING BUDGET TERMS FOR KSTP 1618 AND KPER 2 TO BUDGET FILE TERMS FROM KSTP 1 AND KPER 2

 FMI SETTING HEAD FOR KSTP 1618 AND KPER 2 TO BINARY FILE HEADS FROM KSTP 1 AND KPER 2

 SFR-1 SETTING BUDGET TERMS FOR KSTP 1618 AND KPER 2 TO BUDGET FILE TERMS FROM KSTP 1 AND KPER 2

end timestep


start timestep kper="2" kstp="1619" mode="normal"


 FMI SETTING BUDGET TERMS FOR KSTP 1619 AND KPER 2 TO BUDGET FILE TERMS FROM KSTP 1 AND KPER 2

 FMI SETTING HEAD FOR KSTP 1619 AND KPER 2 TO BINARY FILE HEADS FROM KSTP 1 AND KPER 2

 SFR-1 SETTING BUDGET TERMS FOR KSTP 1619 AND KPER 2 TO BUDGET FILE TERMS FROM KSTP 1 AND KPER 2

end timestep


start timestep kper="2" kstp="1620" mode="normal"


 FMI SETTING BUDGET TERMS FOR KSTP 1620 AND KPER 2 TO BUDGET FILE TERMS FROM KSTP 1 AND KPER 2

 FMI SETTING HEAD FOR KSTP 1620 AND KPER 2 TO BINARY FILE HEADS FROM KSTP 1 AND KPER 2

 SFR-1 SETTING BUDGET TERMS FOR KSTP 1620 AND KPER 2 TO BUDGET FILE TERMS FROM KSTP 1 AND KPER 2

 CONCENTRATION WILL BE SAVED ON UNIT 1024 AT END OF TIME STEP 1620, STRESS PERIOD    2

end timestep


start timestep kper="2" kstp="1621" mode="normal"


 FMI SETTING BUDGET TERMS FOR KSTP 1621 AND KPER 2 TO BUDGET FILE TERMS FROM KSTP 1 AND KPER 2

 FMI SETTING HEAD FOR KSTP 1621 AND KPER 2 TO BINARY FILE HEADS FROM KSTP 1 AND KPER 2

 SFR-1 SETTING BUDGET TERMS FOR KSTP 1621 AND KPER 2 TO BUDGET FILE TERMS FROM KSTP 1 AND KPER 2

end timestep


start timestep kper="2" kstp="1622" mode="normal"


 FMI SETTING BUDGET TERMS FOR KSTP 1622 AND KPER 2 TO BUDGET FILE TERMS FROM KSTP 1 AND KPER 2

 FMI SETTING HEAD FOR KSTP 1622 AND KPER 2 TO BINARY FILE HEADS FROM KSTP 1 AND KPER 2

 SFR-1 SETTING BUDGET TERMS FOR KSTP 1622 AND KPER 2 TO BUDGET FILE TERMS FROM KSTP 1 AND KPER 2

end timestep


start timestep kper="2" kstp="1623" mode="normal"


 FMI SETTING BUDGET TERMS FOR KSTP 1623 AND KPER 2 TO BUDGET FILE TERMS FROM KSTP 1 AND KPER 2

 FMI SETTING HEAD FOR KSTP 1623 AND KPER 2 TO BINARY FILE HEADS FROM KSTP 1 AND KPER 2

 SFR-1 SETTING BUDGET TERMS FOR KSTP 1623 AND KPER 2 TO BUDGET FILE TERMS FROM KSTP 1 AND KPER 2

end timestep


start timestep kper="2" kstp="1624" mode="normal"


 FMI SETTING BUDGET TERMS FOR KSTP 1624 AND KPER 2 TO BUDGET FILE TERMS FROM KSTP 1 AND KPER 2

 FMI SETTING HEAD FOR KSTP 1624 AND KPER 2 TO BINARY FILE HEADS FROM KSTP 1 AND KPER 2

 SFR-1 SETTING BUDGET TERMS FOR KSTP 1624 AND KPER 2 TO BUDGET FILE TERMS FROM KSTP 1 AND KPER 2

end timestep


start timestep kper="2" kstp="1625" mode="normal"


 FMI SETTING BUDGET TERMS FOR KSTP 1625 AND KPER 2 TO BUDGET FILE TERMS FROM KSTP 1 AND KPER 2

 FMI SETTING HEAD FOR KSTP 1625 AND KPER 2 TO BINARY FILE HEADS FROM KSTP 1 AND KPER 2

 SFR-1 SETTING BUDGET TERMS FOR KSTP 1625 AND KPER 2 TO BUDGET FILE TERMS FROM KSTP 1 AND KPER 2

end timestep


start timestep kper="2" kstp="1626" mode="normal"


 FMI SETTING BUDGET TERMS FOR KSTP 1626 AND KPER 2 TO BUDGET FILE TERMS FROM KSTP 1 AND KPER 2

 FMI SETTING HEAD FOR KSTP 1626 AND KPER 2 TO BINARY FILE HEADS FROM KSTP 1 AND KPER 2

 SFR-1 SETTING BUDGET TERMS FOR KSTP 1626 AND KPER 2 TO BUDGET FILE TERMS FROM KSTP 1 AND KPER 2

end timestep


start timestep kper="2" kstp="1627" mode="normal"


 FMI SETTING BUDGET TERMS FOR KSTP 1627 AND KPER 2 TO BUDGET FILE TERMS FROM KSTP 1 AND KPER 2

 FMI SETTING HEAD FOR KSTP 1627 AND KPER 2 TO BINARY FILE HEADS FROM KSTP 1 AND KPER 2

 SFR-1 SETTING BUDGET TERMS FOR KSTP 1627 AND KPER 2 TO BUDGET FILE TERMS FROM KSTP 1 AND KPER 2

end timestep


start timestep kper="2" kstp="1628" mode="normal"


 FMI SETTING BUDGET TERMS FOR KSTP 1628 AND KPER 2 TO BUDGET FILE TERMS FROM KSTP 1 AND KPER 2

 FMI SETTING HEAD FOR KSTP 1628 AND KPER 2 TO BINARY FILE HEADS FROM KSTP 1 AND KPER 2

 SFR-1 SETTING BUDGET TERMS FOR KSTP 1628 AND KPER 2 TO BUDGET FILE TERMS FROM KSTP 1 AND KPER 2

end timestep


start timestep kper="2" kstp="1629" mode="normal"


 FMI SETTING BUDGET TERMS FOR KSTP 1629 AND KPER 2 TO BUDGET FILE TERMS FROM KSTP 1 AND KPER 2

 FMI SETTING HEAD FOR KSTP 1629 AND KPER 2 TO BINARY FILE HEADS FROM KSTP 1 AND KPER 2

 SFR-1 SETTING BUDGET TERMS FOR KSTP 1629 AND KPER 2 TO BUDGET FILE TERMS FROM KSTP 1 AND KPER 2

end timestep


start timestep kper="2" kstp="1630" mode="normal"


 FMI SETTING BUDGET TERMS FOR KSTP 1630 AND KPER 2 TO BUDGET FILE TERMS FROM KSTP 1 AND KPER 2

 FMI SETTING HEAD FOR KSTP 1630 AND KPER 2 TO BINARY FILE HEADS FROM KSTP 1 AND KPER 2

 SFR-1 SETTING BUDGET TERMS FOR KSTP 1630 AND KPER 2 TO BUDGET FILE TERMS FROM KSTP 1 AND KPER 2

 CONCENTRATION WILL BE SAVED ON UNIT 1024 AT END OF TIME STEP 1630, STRESS PERIOD    2

end timestep


start timestep kper="2" kstp="1631" mode="normal"


 FMI SETTING BUDGET TERMS FOR KSTP 1631 AND KPER 2 TO BUDGET FILE TERMS FROM KSTP 1 AND KPER 2

 FMI SETTING HEAD FOR KSTP 1631 AND KPER 2 TO BINARY FILE HEADS FROM KSTP 1 AND KPER 2

 SFR-1 SETTING BUDGET TERMS FOR KSTP 1631 AND KPER 2 TO BUDGET FILE TERMS FROM KSTP 1 AND KPER 2

end timestep


start timestep kper="2" kstp="1632" mode="normal"


 FMI SETTING BUDGET TERMS FOR KSTP 1632 AND KPER 2 TO BUDGET FILE TERMS FROM KSTP 1 AND KPER 2

 FMI SETTING HEAD FOR KSTP 1632 AND KPER 2 TO BINARY FILE HEADS FROM KSTP 1 AND KPER 2

 SFR-1 SETTING BUDGET TERMS FOR KSTP 1632 AND KPER 2 TO BUDGET FILE TERMS FROM KSTP 1 AND KPER 2

end timestep


start timestep kper="2" kstp="1633" mode="normal"


 FMI SETTING BUDGET TERMS FOR KSTP 1633 AND KPER 2 TO BUDGET FILE TERMS FROM KSTP 1 AND KPER 2

 FMI SETTING HEAD FOR KSTP 1633 AND KPER 2 TO BINARY FILE HEADS FROM KSTP 1 AND KPER 2

 SFR-1 SETTING BUDGET TERMS FOR KSTP 1633 AND KPER 2 TO BUDGET FILE TERMS FROM KSTP 1 AND KPER 2

end timestep


start timestep kper="2" kstp="1634" mode="normal"


 FMI SETTING BUDGET TERMS FOR KSTP 1634 AND KPER 2 TO BUDGET FILE TERMS FROM KSTP 1 AND KPER 2

 FMI SETTING HEAD FOR KSTP 1634 AND KPER 2 TO BINARY FILE HEADS FROM KSTP 1 AND KPER 2

 SFR-1 SETTING BUDGET TERMS FOR KSTP 1634 AND KPER 2 TO BUDGET FILE TERMS FROM KSTP 1 AND KPER 2

end timestep


start timestep kper="2" kstp="1635" mode="normal"


 FMI SETTING BUDGET TERMS FOR KSTP 1635 AND KPER 2 TO BUDGET FILE TERMS FROM KSTP 1 AND KPER 2

 FMI SETTING HEAD FOR KSTP 1635 AND KPER 2 TO BINARY FILE HEADS FROM KSTP 1 AND KPER 2

 SFR-1 SETTING BUDGET TERMS FOR KSTP 1635 AND KPER 2 TO BUDGET FILE TERMS FROM KSTP 1 AND KPER 2

end timestep


start timestep kper="2" kstp="1636" mode="normal"


 FMI SETTING BUDGET TERMS FOR KSTP 1636 AND KPER 2 TO BUDGET FILE TERMS FROM KSTP 1 AND KPER 2

 FMI SETTING HEAD FOR KSTP 1636 AND KPER 2 TO BINARY FILE HEADS FROM KSTP 1 AND KPER 2

 SFR-1 SETTING BUDGET TERMS FOR KSTP 1636 AND KPER 2 TO BUDGET FILE TERMS FROM KSTP 1 AND KPER 2

end timestep


start timestep kper="2" kstp="1637" mode="normal"


 FMI SETTING BUDGET TERMS FOR KSTP 1637 AND KPER 2 TO BUDGET FILE TERMS FROM KSTP 1 AND KPER 2

 FMI SETTING HEAD FOR KSTP 1637 AND KPER 2 TO BINARY FILE HEADS FROM KSTP 1 AND KPER 2

 SFR-1 SETTING BUDGET TERMS FOR KSTP 1637 AND KPER 2 TO BUDGET FILE TERMS FROM KSTP 1 AND KPER 2

end timestep


start timestep kper="2" kstp="1638" mode="normal"


 FMI SETTING BUDGET TERMS FOR KSTP 1638 AND KPER 2 TO BUDGET FILE TERMS FROM KSTP 1 AND KPER 2

 FMI SETTING HEAD FOR KSTP 1638 AND KPER 2 TO BINARY FILE HEADS FROM KSTP 1 AND KPER 2

 SFR-1 SETTING BUDGET TERMS FOR KSTP 1638 AND KPER 2 TO BUDGET FILE TERMS FROM KSTP 1 AND KPER 2

end timestep


start timestep kper="2" kstp="1639" mode="normal"


 FMI SETTING BUDGET TERMS FOR KSTP 1639 AND KPER 2 TO BUDGET FILE TERMS FROM KSTP 1 AND KPER 2

 FMI SETTING HEAD FOR KSTP 1639 AND KPER 2 TO BINARY FILE HEADS FROM KSTP 1 AND KPER 2

 SFR-1 SETTING BUDGET TERMS FOR KSTP 1639 AND KPER 2 TO BUDGET FILE TERMS FROM KSTP 1 AND KPER 2

end timestep


start timestep kper="2" kstp="1640" mode="normal"


 FMI SETTING BUDGET TERMS FOR KSTP 1640 AND KPER 2 TO BUDGET FILE TERMS FROM KSTP 1 AND KPER 2

 FMI SETTING HEAD FOR KSTP 1640 AND KPER 2 TO BINARY FILE HEADS FROM KSTP 1 AND KPER 2

 SFR-1 SETTING BUDGET TERMS FOR KSTP 1640 AND KPER 2 TO BUDGET FILE TERMS FROM KSTP 1 AND KPER 2

 CONCENTRATION WILL BE SAVED ON UNIT 1024 AT END OF TIME STEP 1640, STRESS PERIOD    2

end timestep


start timestep kper="2" kstp="1641" mode="normal"


 FMI SETTING BUDGET TERMS FOR KSTP 1641 AND KPER 2 TO BUDGET FILE TERMS FROM KSTP 1 AND KPER 2

 FMI SETTING HEAD FOR KSTP 1641 AND KPER 2 TO BINARY FILE HEADS FROM KSTP 1 AND KPER 2

 SFR-1 SETTING BUDGET TERMS FOR KSTP 1641 AND KPER 2 TO BUDGET FILE TERMS FROM KSTP 1 AND KPER 2

end timestep


start timestep kper="2" kstp="1642" mode="normal"


 FMI SETTING BUDGET TERMS FOR KSTP 1642 AND KPER 2 TO BUDGET FILE TERMS FROM KSTP 1 AND KPER 2

 FMI SETTING HEAD FOR KSTP 1642 AND KPER 2 TO BINARY FILE HEADS FROM KSTP 1 AND KPER 2

 SFR-1 SETTING BUDGET TERMS FOR KSTP 1642 AND KPER 2 TO BUDGET FILE TERMS FROM KSTP 1 AND KPER 2

end timestep


start timestep kper="2" kstp="1643" mode="normal"


 FMI SETTING BUDGET TERMS FOR KSTP 1643 AND KPER 2 TO BUDGET FILE TERMS FROM KSTP 1 AND KPER 2

 FMI SETTING HEAD FOR KSTP 1643 AND KPER 2 TO BINARY FILE HEADS FROM KSTP 1 AND KPER 2

 SFR-1 SETTING BUDGET TERMS FOR KSTP 1643 AND KPER 2 TO BUDGET FILE TERMS FROM KSTP 1 AND KPER 2

end timestep


start timestep kper="2" kstp="1644" mode="normal"


 FMI SETTING BUDGET TERMS FOR KSTP 1644 AND KPER 2 TO BUDGET FILE TERMS FROM KSTP 1 AND KPER 2

 FMI SETTING HEAD FOR KSTP 1644 AND KPER 2 TO BINARY FILE HEADS FROM KSTP 1 AND KPER 2

 SFR-1 SETTING BUDGET TERMS FOR KSTP 1644 AND KPER 2 TO BUDGET FILE TERMS FROM KSTP 1 AND KPER 2

end timestep


start timestep kper="2" kstp="1645" mode="normal"


 FMI SETTING BUDGET TERMS FOR KSTP 1645 AND KPER 2 TO BUDGET FILE TERMS FROM KSTP 1 AND KPER 2

 FMI SETTING HEAD FOR KSTP 1645 AND KPER 2 TO BINARY FILE HEADS FROM KSTP 1 AND KPER 2

 SFR-1 SETTING BUDGET TERMS FOR KSTP 1645 AND KPER 2 TO BUDGET FILE TERMS FROM KSTP 1 AND KPER 2

end timestep


start timestep kper="2" kstp="1646" mode="normal"


 FMI SETTING BUDGET TERMS FOR KSTP 1646 AND KPER 2 TO BUDGET FILE TERMS FROM KSTP 1 AND KPER 2

 FMI SETTING HEAD FOR KSTP 1646 AND KPER 2 TO BINARY FILE HEADS FROM KSTP 1 AND KPER 2

 SFR-1 SETTING BUDGET TERMS FOR KSTP 1646 AND KPER 2 TO BUDGET FILE TERMS FROM KSTP 1 AND KPER 2

end timestep


start timestep kper="2" kstp="1647" mode="normal"


 FMI SETTING BUDGET TERMS FOR KSTP 1647 AND KPER 2 TO BUDGET FILE TERMS FROM KSTP 1 AND KPER 2

 FMI SETTING HEAD FOR KSTP 1647 AND KPER 2 TO BINARY FILE HEADS FROM KSTP 1 AND KPER 2

 SFR-1 SETTING BUDGET TERMS FOR KSTP 1647 AND KPER 2 TO BUDGET FILE TERMS FROM KSTP 1 AND KPER 2

end timestep


start timestep kper="2" kstp="1648" mode="normal"


 FMI SETTING BUDGET TERMS FOR KSTP 1648 AND KPER 2 TO BUDGET FILE TERMS FROM KSTP 1 AND KPER 2

 FMI SETTING HEAD FOR KSTP 1648 AND KPER 2 TO BINARY FILE HEADS FROM KSTP 1 AND KPER 2

 SFR-1 SETTING BUDGET TERMS FOR KSTP 1648 AND KPER 2 TO BUDGET FILE TERMS FROM KSTP 1 AND KPER 2

end timestep


start timestep kper="2" kstp="1649" mode="normal"


 FMI SETTING BUDGET TERMS FOR KSTP 1649 AND KPER 2 TO BUDGET FILE TERMS FROM KSTP 1 AND KPER 2

 FMI SETTING HEAD FOR KSTP 1649 AND KPER 2 TO BINARY FILE HEADS FROM KSTP 1 AND KPER 2

 SFR-1 SETTING BUDGET TERMS FOR KSTP 1649 AND KPER 2 TO BUDGET FILE TERMS FROM KSTP 1 AND KPER 2

end timestep


start timestep kper="2" kstp="1650" mode="normal"


 FMI SETTING BUDGET TERMS FOR KSTP 1650 AND KPER 2 TO BUDGET FILE TERMS FROM KSTP 1 AND KPER 2

 FMI SETTING HEAD FOR KSTP 1650 AND KPER 2 TO BINARY FILE HEADS FROM KSTP 1 AND KPER 2

 SFR-1 SETTING BUDGET TERMS FOR KSTP 1650 AND KPER 2 TO BUDGET FILE TERMS FROM KSTP 1 AND KPER 2

 CONCENTRATION WILL BE SAVED ON UNIT 1024 AT END OF TIME STEP 1650, STRESS PERIOD    2

end timestep


start timestep kper="2" kstp="1651" mode="normal"


 FMI SETTING BUDGET TERMS FOR KSTP 1651 AND KPER 2 TO BUDGET FILE TERMS FROM KSTP 1 AND KPER 2

 FMI SETTING HEAD FOR KSTP 1651 AND KPER 2 TO BINARY FILE HEADS FROM KSTP 1 AND KPER 2

 SFR-1 SETTING BUDGET TERMS FOR KSTP 1651 AND KPER 2 TO BUDGET FILE TERMS FROM KSTP 1 AND KPER 2

end timestep


start timestep kper="2" kstp="1652" mode="normal"


 FMI SETTING BUDGET TERMS FOR KSTP 1652 AND KPER 2 TO BUDGET FILE TERMS FROM KSTP 1 AND KPER 2

 FMI SETTING HEAD FOR KSTP 1652 AND KPER 2 TO BINARY FILE HEADS FROM KSTP 1 AND KPER 2

 SFR-1 SETTING BUDGET TERMS FOR KSTP 1652 AND KPER 2 TO BUDGET FILE TERMS FROM KSTP 1 AND KPER 2

end timestep


start timestep kper="2" kstp="1653" mode="normal"


 FMI SETTING BUDGET TERMS FOR KSTP 1653 AND KPER 2 TO BUDGET FILE TERMS FROM KSTP 1 AND KPER 2

 FMI SETTING HEAD FOR KSTP 1653 AND KPER 2 TO BINARY FILE HEADS FROM KSTP 1 AND KPER 2

 SFR-1 SETTING BUDGET TERMS FOR KSTP 1653 AND KPER 2 TO BUDGET FILE TERMS FROM KSTP 1 AND KPER 2

end timestep


start timestep kper="2" kstp="1654" mode="normal"


 FMI SETTING BUDGET TERMS FOR KSTP 1654 AND KPER 2 TO BUDGET FILE TERMS FROM KSTP 1 AND KPER 2

 FMI SETTING HEAD FOR KSTP 1654 AND KPER 2 TO BINARY FILE HEADS FROM KSTP 1 AND KPER 2

 SFR-1 SETTING BUDGET TERMS FOR KSTP 1654 AND KPER 2 TO BUDGET FILE TERMS FROM KSTP 1 AND KPER 2

end timestep


start timestep kper="2" kstp="1655" mode="normal"


 FMI SETTING BUDGET TERMS FOR KSTP 1655 AND KPER 2 TO BUDGET FILE TERMS FROM KSTP 1 AND KPER 2

 FMI SETTING HEAD FOR KSTP 1655 AND KPER 2 TO BINARY FILE HEADS FROM KSTP 1 AND KPER 2

 SFR-1 SETTING BUDGET TERMS FOR KSTP 1655 AND KPER 2 TO BUDGET FILE TERMS FROM KSTP 1 AND KPER 2

end timestep


start timestep kper="2" kstp="1656" mode="normal"


 FMI SETTING BUDGET TERMS FOR KSTP 1656 AND KPER 2 TO BUDGET FILE TERMS FROM KSTP 1 AND KPER 2

 FMI SETTING HEAD FOR KSTP 1656 AND KPER 2 TO BINARY FILE HEADS FROM KSTP 1 AND KPER 2

 SFR-1 SETTING BUDGET TERMS FOR KSTP 1656 AND KPER 2 TO BUDGET FILE TERMS FROM KSTP 1 AND KPER 2

end timestep


start timestep kper="2" kstp="1657" mode="normal"


 FMI SETTING BUDGET TERMS FOR KSTP 1657 AND KPER 2 TO BUDGET FILE TERMS FROM KSTP 1 AND KPER 2

 FMI SETTING HEAD FOR KSTP 1657 AND KPER 2 TO BINARY FILE HEADS FROM KSTP 1 AND KPER 2

 SFR-1 SETTING BUDGET TERMS FOR KSTP 1657 AND KPER 2 TO BUDGET FILE TERMS FROM KSTP 1 AND KPER 2

end timestep


start timestep kper="2" kstp="1658" mode="normal"


 FMI SETTING BUDGET TERMS FOR KSTP 1658 AND KPER 2 TO BUDGET FILE TERMS FROM KSTP 1 AND KPER 2

 FMI SETTING HEAD FOR KSTP 1658 AND KPER 2 TO BINARY FILE HEADS FROM KSTP 1 AND KPER 2

 SFR-1 SETTING BUDGET TERMS FOR KSTP 1658 AND KPER 2 TO BUDGET FILE TERMS FROM KSTP 1 AND KPER 2

end timestep


start timestep kper="2" kstp="1659" mode="normal"


 FMI SETTING BUDGET TERMS FOR KSTP 1659 AND KPER 2 TO BUDGET FILE TERMS FROM KSTP 1 AND KPER 2

 FMI SETTING HEAD FOR KSTP 1659 AND KPER 2 TO BINARY FILE HEADS FROM KSTP 1 AND KPER 2

 SFR-1 SETTING BUDGET TERMS FOR KSTP 1659 AND KPER 2 TO BUDGET FILE TERMS FROM KSTP 1 AND KPER 2

end timestep


start timestep kper="2" kstp="1660" mode="normal"


 FMI SETTING BUDGET TERMS FOR KSTP 1660 AND KPER 2 TO BUDGET FILE TERMS FROM KSTP 1 AND KPER 2

 FMI SETTING HEAD FOR KSTP 1660 AND KPER 2 TO BINARY FILE HEADS FROM KSTP 1 AND KPER 2

 SFR-1 SETTING BUDGET TERMS FOR KSTP 1660 AND KPER 2 TO BUDGET FILE TERMS FROM KSTP 1 AND KPER 2

 CONCENTRATION WILL BE SAVED ON UNIT 1024 AT END OF TIME STEP 1660, STRESS PERIOD    2

end timestep


start timestep kper="2" kstp="1661" mode="normal"


 FMI SETTING BUDGET TERMS FOR KSTP 1661 AND KPER 2 TO BUDGET FILE TERMS FROM KSTP 1 AND KPER 2

 FMI SETTING HEAD FOR KSTP 1661 AND KPER 2 TO BINARY FILE HEADS FROM KSTP 1 AND KPER 2

 SFR-1 SETTING BUDGET TERMS FOR KSTP 1661 AND KPER 2 TO BUDGET FILE TERMS FROM KSTP 1 AND KPER 2

end timestep


start timestep kper="2" kstp="1662" mode="normal"


 FMI SETTING BUDGET TERMS FOR KSTP 1662 AND KPER 2 TO BUDGET FILE TERMS FROM KSTP 1 AND KPER 2

 FMI SETTING HEAD FOR KSTP 1662 AND KPER 2 TO BINARY FILE HEADS FROM KSTP 1 AND KPER 2

 SFR-1 SETTING BUDGET TERMS FOR KSTP 1662 AND KPER 2 TO BUDGET FILE TERMS FROM KSTP 1 AND KPER 2

end timestep


start timestep kper="2" kstp="1663" mode="normal"


 FMI SETTING BUDGET TERMS FOR KSTP 1663 AND KPER 2 TO BUDGET FILE TERMS FROM KSTP 1 AND KPER 2

 FMI SETTING HEAD FOR KSTP 1663 AND KPER 2 TO BINARY FILE HEADS FROM KSTP 1 AND KPER 2

 SFR-1 SETTING BUDGET TERMS FOR KSTP 1663 AND KPER 2 TO BUDGET FILE TERMS FROM KSTP 1 AND KPER 2

end timestep


start timestep kper="2" kstp="1664" mode="normal"


 FMI SETTING BUDGET TERMS FOR KSTP 1664 AND KPER 2 TO BUDGET FILE TERMS FROM KSTP 1 AND KPER 2

 FMI SETTING HEAD FOR KSTP 1664 AND KPER 2 TO BINARY FILE HEADS FROM KSTP 1 AND KPER 2

 SFR-1 SETTING BUDGET TERMS FOR KSTP 1664 AND KPER 2 TO BUDGET FILE TERMS FROM KSTP 1 AND KPER 2

end timestep


start timestep kper="2" kstp="1665" mode="normal"


 FMI SETTING BUDGET TERMS FOR KSTP 1665 AND KPER 2 TO BUDGET FILE TERMS FROM KSTP 1 AND KPER 2

 FMI SETTING HEAD FOR KSTP 1665 AND KPER 2 TO BINARY FILE HEADS FROM KSTP 1 AND KPER 2

 SFR-1 SETTING BUDGET TERMS FOR KSTP 1665 AND KPER 2 TO BUDGET FILE TERMS FROM KSTP 1 AND KPER 2

end timestep


start timestep kper="2" kstp="1666" mode="normal"


 FMI SETTING BUDGET TERMS FOR KSTP 1666 AND KPER 2 TO BUDGET FILE TERMS FROM KSTP 1 AND KPER 2

 FMI SETTING HEAD FOR KSTP 1666 AND KPER 2 TO BINARY FILE HEADS FROM KSTP 1 AND KPER 2

 SFR-1 SETTING BUDGET TERMS FOR KSTP 1666 AND KPER 2 TO BUDGET FILE TERMS FROM KSTP 1 AND KPER 2

end timestep


start timestep kper="2" kstp="1667" mode="normal"


 FMI SETTING BUDGET TERMS FOR KSTP 1667 AND KPER 2 TO BUDGET FILE TERMS FROM KSTP 1 AND KPER 2

 FMI SETTING HEAD FOR KSTP 1667 AND KPER 2 TO BINARY FILE HEADS FROM KSTP 1 AND KPER 2

 SFR-1 SETTING BUDGET TERMS FOR KSTP 1667 AND KPER 2 TO BUDGET FILE TERMS FROM KSTP 1 AND KPER 2

end timestep


start timestep kper="2" kstp="1668" mode="normal"


 FMI SETTING BUDGET TERMS FOR KSTP 1668 AND KPER 2 TO BUDGET FILE TERMS FROM KSTP 1 AND KPER 2

 FMI SETTING HEAD FOR KSTP 1668 AND KPER 2 TO BINARY FILE HEADS FROM KSTP 1 AND KPER 2

 SFR-1 SETTING BUDGET TERMS FOR KSTP 1668 AND KPER 2 TO BUDGET FILE TERMS FROM KSTP 1 AND KPER 2

end timestep


start timestep kper="2" kstp="1669" mode="normal"


 FMI SETTING BUDGET TERMS FOR KSTP 1669 AND KPER 2 TO BUDGET FILE TERMS FROM KSTP 1 AND KPER 2

 FMI SETTING HEAD FOR KSTP 1669 AND KPER 2 TO BINARY FILE HEADS FROM KSTP 1 AND KPER 2

 SFR-1 SETTING BUDGET TERMS FOR KSTP 1669 AND KPER 2 TO BUDGET FILE TERMS FROM KSTP 1 AND KPER 2

end timestep


start timestep kper="2" kstp="1670" mode="normal"


 FMI SETTING BUDGET TERMS FOR KSTP 1670 AND KPER 2 TO BUDGET FILE TERMS FROM KSTP 1 AND KPER 2

 FMI SETTING HEAD FOR KSTP 1670 AND KPER 2 TO BINARY FILE HEADS FROM KSTP 1 AND KPER 2

 SFR-1 SETTING BUDGET TERMS FOR KSTP 1670 AND KPER 2 TO BUDGET FILE TERMS FROM KSTP 1 AND KPER 2

 CONCENTRATION WILL BE SAVED ON UNIT 1024 AT END OF TIME STEP 1670, STRESS PERIOD    2

end timestep


start timestep kper="2" kstp="1671" mode="normal"


 FMI SETTING BUDGET TERMS FOR KSTP 1671 AND KPER 2 TO BUDGET FILE TERMS FROM KSTP 1 AND KPER 2

 FMI SETTING HEAD FOR KSTP 1671 AND KPER 2 TO BINARY FILE HEADS FROM KSTP 1 AND KPER 2

 SFR-1 SETTING BUDGET TERMS FOR KSTP 1671 AND KPER 2 TO BUDGET FILE TERMS FROM KSTP 1 AND KPER 2

end timestep


start timestep kper="2" kstp="1672" mode="normal"


 FMI SETTING BUDGET TERMS FOR KSTP 1672 AND KPER 2 TO BUDGET FILE TERMS FROM KSTP 1 AND KPER 2

 FMI SETTING HEAD FOR KSTP 1672 AND KPER 2 TO BINARY FILE HEADS FROM KSTP 1 AND KPER 2

 SFR-1 SETTING BUDGET TERMS FOR KSTP 1672 AND KPER 2 TO BUDGET FILE TERMS FROM KSTP 1 AND KPER 2

end timestep


start timestep kper="2" kstp="1673" mode="normal"


 FMI SETTING BUDGET TERMS FOR KSTP 1673 AND KPER 2 TO BUDGET FILE TERMS FROM KSTP 1 AND KPER 2

 FMI SETTING HEAD FOR KSTP 1673 AND KPER 2 TO BINARY FILE HEADS FROM KSTP 1 AND KPER 2

 SFR-1 SETTING BUDGET TERMS FOR KSTP 1673 AND KPER 2 TO BUDGET FILE TERMS FROM KSTP 1 AND KPER 2

end timestep


start timestep kper="2" kstp="1674" mode="normal"


 FMI SETTING BUDGET TERMS FOR KSTP 1674 AND KPER 2 TO BUDGET FILE TERMS FROM KSTP 1 AND KPER 2

 FMI SETTING HEAD FOR KSTP 1674 AND KPER 2 TO BINARY FILE HEADS FROM KSTP 1 AND KPER 2

 SFR-1 SETTING BUDGET TERMS FOR KSTP 1674 AND KPER 2 TO BUDGET FILE TERMS FROM KSTP 1 AND KPER 2

end timestep


start timestep kper="2" kstp="1675" mode="normal"


 FMI SETTING BUDGET TERMS FOR KSTP 1675 AND KPER 2 TO BUDGET FILE TERMS FROM KSTP 1 AND KPER 2

 FMI SETTING HEAD FOR KSTP 1675 AND KPER 2 TO BINARY FILE HEADS FROM KSTP 1 AND KPER 2

 SFR-1 SETTING BUDGET TERMS FOR KSTP 1675 AND KPER 2 TO BUDGET FILE TERMS FROM KSTP 1 AND KPER 2

end timestep


start timestep kper="2" kstp="1676" mode="normal"


 FMI SETTING BUDGET TERMS FOR KSTP 1676 AND KPER 2 TO BUDGET FILE TERMS FROM KSTP 1 AND KPER 2

 FMI SETTING HEAD FOR KSTP 1676 AND KPER 2 TO BINARY FILE HEADS FROM KSTP 1 AND KPER 2

 SFR-1 SETTING BUDGET TERMS FOR KSTP 1676 AND KPER 2 TO BUDGET FILE TERMS FROM KSTP 1 AND KPER 2

end timestep


start timestep kper="2" kstp="1677" mode="normal"


 FMI SETTING BUDGET TERMS FOR KSTP 1677 AND KPER 2 TO BUDGET FILE TERMS FROM KSTP 1 AND KPER 2

 FMI SETTING HEAD FOR KSTP 1677 AND KPER 2 TO BINARY FILE HEADS FROM KSTP 1 AND KPER 2

 SFR-1 SETTING BUDGET TERMS FOR KSTP 1677 AND KPER 2 TO BUDGET FILE TERMS FROM KSTP 1 AND KPER 2

end timestep


start timestep kper="2" kstp="1678" mode="normal"


 FMI SETTING BUDGET TERMS FOR KSTP 1678 AND KPER 2 TO BUDGET FILE TERMS FROM KSTP 1 AND KPER 2

 FMI SETTING HEAD FOR KSTP 1678 AND KPER 2 TO BINARY FILE HEADS FROM KSTP 1 AND KPER 2

 SFR-1 SETTING BUDGET TERMS FOR KSTP 1678 AND KPER 2 TO BUDGET FILE TERMS FROM KSTP 1 AND KPER 2

end timestep


start timestep kper="2" kstp="1679" mode="normal"


 FMI SETTING BUDGET TERMS FOR KSTP 1679 AND KPER 2 TO BUDGET FILE TERMS FROM KSTP 1 AND KPER 2

 FMI SETTING HEAD FOR KSTP 1679 AND KPER 2 TO BINARY FILE HEADS FROM KSTP 1 AND KPER 2

 SFR-1 SETTING BUDGET TERMS FOR KSTP 1679 AND KPER 2 TO BUDGET FILE TERMS FROM KSTP 1 AND KPER 2

end timestep


start timestep kper="2" kstp="1680" mode="normal"


 FMI SETTING BUDGET TERMS FOR KSTP 1680 AND KPER 2 TO BUDGET FILE TERMS FROM KSTP 1 AND KPER 2

 FMI SETTING HEAD FOR KSTP 1680 AND KPER 2 TO BINARY FILE HEADS FROM KSTP 1 AND KPER 2

 SFR-1 SETTING BUDGET TERMS FOR KSTP 1680 AND KPER 2 TO BUDGET FILE TERMS FROM KSTP 1 AND KPER 2

 CONCENTRATION WILL BE SAVED ON UNIT 1024 AT END OF TIME STEP 1680, STRESS PERIOD    2

end timestep


start timestep kper="2" kstp="1681" mode="normal"


 FMI SETTING BUDGET TERMS FOR KSTP 1681 AND KPER 2 TO BUDGET FILE TERMS FROM KSTP 1 AND KPER 2

 FMI SETTING HEAD FOR KSTP 1681 AND KPER 2 TO BINARY FILE HEADS FROM KSTP 1 AND KPER 2

 SFR-1 SETTING BUDGET TERMS FOR KSTP 1681 AND KPER 2 TO BUDGET FILE TERMS FROM KSTP 1 AND KPER 2

end timestep


start timestep kper="2" kstp="1682" mode="normal"


 FMI SETTING BUDGET TERMS FOR KSTP 1682 AND KPER 2 TO BUDGET FILE TERMS FROM KSTP 1 AND KPER 2

 FMI SETTING HEAD FOR KSTP 1682 AND KPER 2 TO BINARY FILE HEADS FROM KSTP 1 AND KPER 2

 SFR-1 SETTING BUDGET TERMS FOR KSTP 1682 AND KPER 2 TO BUDGET FILE TERMS FROM KSTP 1 AND KPER 2

end timestep


start timestep kper="2" kstp="1683" mode="normal"


 FMI SETTING BUDGET TERMS FOR KSTP 1683 AND KPER 2 TO BUDGET FILE TERMS FROM KSTP 1 AND KPER 2

 FMI SETTING HEAD FOR KSTP 1683 AND KPER 2 TO BINARY FILE HEADS FROM KSTP 1 AND KPER 2

 SFR-1 SETTING BUDGET TERMS FOR KSTP 1683 AND KPER 2 TO BUDGET FILE TERMS FROM KSTP 1 AND KPER 2

end timestep


start timestep kper="2" kstp="1684" mode="normal"


 FMI SETTING BUDGET TERMS FOR KSTP 1684 AND KPER 2 TO BUDGET FILE TERMS FROM KSTP 1 AND KPER 2

 FMI SETTING HEAD FOR KSTP 1684 AND KPER 2 TO BINARY FILE HEADS FROM KSTP 1 AND KPER 2

 SFR-1 SETTING BUDGET TERMS FOR KSTP 1684 AND KPER 2 TO BUDGET FILE TERMS FROM KSTP 1 AND KPER 2

end timestep


start timestep kper="2" kstp="1685" mode="normal"


 FMI SETTING BUDGET TERMS FOR KSTP 1685 AND KPER 2 TO BUDGET FILE TERMS FROM KSTP 1 AND KPER 2

 FMI SETTING HEAD FOR KSTP 1685 AND KPER 2 TO BINARY FILE HEADS FROM KSTP 1 AND KPER 2

 SFR-1 SETTING BUDGET TERMS FOR KSTP 1685 AND KPER 2 TO BUDGET FILE TERMS FROM KSTP 1 AND KPER 2

end timestep


start timestep kper="2" kstp="1686" mode="normal"


 FMI SETTING BUDGET TERMS FOR KSTP 1686 AND KPER 2 TO BUDGET FILE TERMS FROM KSTP 1 AND KPER 2

 FMI SETTING HEAD FOR KSTP 1686 AND KPER 2 TO BINARY FILE HEADS FROM KSTP 1 AND KPER 2

 SFR-1 SETTING BUDGET TERMS FOR KSTP 1686 AND KPER 2 TO BUDGET FILE TERMS FROM KSTP 1 AND KPER 2

end timestep


start timestep kper="2" kstp="1687" mode="normal"


 FMI SETTING BUDGET TERMS FOR KSTP 1687 AND KPER 2 TO BUDGET FILE TERMS FROM KSTP 1 AND KPER 2

 FMI SETTING HEAD FOR KSTP 1687 AND KPER 2 TO BINARY FILE HEADS FROM KSTP 1 AND KPER 2

 SFR-1 SETTING BUDGET TERMS FOR KSTP 1687 AND KPER 2 TO BUDGET FILE TERMS FROM KSTP 1 AND KPER 2

end timestep


start timestep kper="2" kstp="1688" mode="normal"


 FMI SETTING BUDGET TERMS FOR KSTP 1688 AND KPER 2 TO BUDGET FILE TERMS FROM KSTP 1 AND KPER 2

 FMI SETTING HEAD FOR KSTP 1688 AND KPER 2 TO BINARY FILE HEADS FROM KSTP 1 AND KPER 2

 SFR-1 SETTING BUDGET TERMS FOR KSTP 1688 AND KPER 2 TO BUDGET FILE TERMS FROM KSTP 1 AND KPER 2

end timestep


start timestep kper="2" kstp="1689" mode="normal"


 FMI SETTING BUDGET TERMS FOR KSTP 1689 AND KPER 2 TO BUDGET FILE TERMS FROM KSTP 1 AND KPER 2

 FMI SETTING HEAD FOR KSTP 1689 AND KPER 2 TO BINARY FILE HEADS FROM KSTP 1 AND KPER 2

 SFR-1 SETTING BUDGET TERMS FOR KSTP 1689 AND KPER 2 TO BUDGET FILE TERMS FROM KSTP 1 AND KPER 2

end timestep


start timestep kper="2" kstp="1690" mode="normal"


 FMI SETTING BUDGET TERMS FOR KSTP 1690 AND KPER 2 TO BUDGET FILE TERMS FROM KSTP 1 AND KPER 2

 FMI SETTING HEAD FOR KSTP 1690 AND KPER 2 TO BINARY FILE HEADS FROM KSTP 1 AND KPER 2

 SFR-1 SETTING BUDGET TERMS FOR KSTP 1690 AND KPER 2 TO BUDGET FILE TERMS FROM KSTP 1 AND KPER 2

 CONCENTRATION WILL BE SAVED ON UNIT 1024 AT END OF TIME STEP 1690, STRESS PERIOD    2

end timestep


start timestep kper="2" kstp="1691" mode="normal"


 FMI SETTING BUDGET TERMS FOR KSTP 1691 AND KPER 2 TO BUDGET FILE TERMS FROM KSTP 1 AND KPER 2

 FMI SETTING HEAD FOR KSTP 1691 AND KPER 2 TO BINARY FILE HEADS FROM KSTP 1 AND KPER 2

 SFR-1 SETTING BUDGET TERMS FOR KSTP 1691 AND KPER 2 TO BUDGET FILE TERMS FROM KSTP 1 AND KPER 2

end timestep


start timestep kper="2" kstp="1692" mode="normal"


 FMI SETTING BUDGET TERMS FOR KSTP 1692 AND KPER 2 TO BUDGET FILE TERMS FROM KSTP 1 AND KPER 2

 FMI SETTING HEAD FOR KSTP 1692 AND KPER 2 TO BINARY FILE HEADS FROM KSTP 1 AND KPER 2

 SFR-1 SETTING BUDGET TERMS FOR KSTP 1692 AND KPER 2 TO BUDGET FILE TERMS FROM KSTP 1 AND KPER 2

end timestep


start timestep kper="2" kstp="1693" mode="normal"


 FMI SETTING BUDGET TERMS FOR KSTP 1693 AND KPER 2 TO BUDGET FILE TERMS FROM KSTP 1 AND KPER 2

 FMI SETTING HEAD FOR KSTP 1693 AND KPER 2 TO BINARY FILE HEADS FROM KSTP 1 AND KPER 2

 SFR-1 SETTING BUDGET TERMS FOR KSTP 1693 AND KPER 2 TO BUDGET FILE TERMS FROM KSTP 1 AND KPER 2

end timestep


start timestep kper="2" kstp="1694" mode="normal"


 FMI SETTING BUDGET TERMS FOR KSTP 1694 AND KPER 2 TO BUDGET FILE TERMS FROM KSTP 1 AND KPER 2

 FMI SETTING HEAD FOR KSTP 1694 AND KPER 2 TO BINARY FILE HEADS FROM KSTP 1 AND KPER 2

 SFR-1 SETTING BUDGET TERMS FOR KSTP 1694 AND KPER 2 TO BUDGET FILE TERMS FROM KSTP 1 AND KPER 2

end timestep


start timestep kper="2" kstp="1695" mode="normal"


 FMI SETTING BUDGET TERMS FOR KSTP 1695 AND KPER 2 TO BUDGET FILE TERMS FROM KSTP 1 AND KPER 2

 FMI SETTING HEAD FOR KSTP 1695 AND KPER 2 TO BINARY FILE HEADS FROM KSTP 1 AND KPER 2

 SFR-1 SETTING BUDGET TERMS FOR KSTP 1695 AND KPER 2 TO BUDGET FILE TERMS FROM KSTP 1 AND KPER 2

end timestep


start timestep kper="2" kstp="1696" mode="normal"


 FMI SETTING BUDGET TERMS FOR KSTP 1696 AND KPER 2 TO BUDGET FILE TERMS FROM KSTP 1 AND KPER 2

 FMI SETTING HEAD FOR KSTP 1696 AND KPER 2 TO BINARY FILE HEADS FROM KSTP 1 AND KPER 2

 SFR-1 SETTING BUDGET TERMS FOR KSTP 1696 AND KPER 2 TO BUDGET FILE TERMS FROM KSTP 1 AND KPER 2

end timestep


start timestep kper="2" kstp="1697" mode="normal"


 FMI SETTING BUDGET TERMS FOR KSTP 1697 AND KPER 2 TO BUDGET FILE TERMS FROM KSTP 1 AND KPER 2

 FMI SETTING HEAD FOR KSTP 1697 AND KPER 2 TO BINARY FILE HEADS FROM KSTP 1 AND KPER 2

 SFR-1 SETTING BUDGET TERMS FOR KSTP 1697 AND KPER 2 TO BUDGET FILE TERMS FROM KSTP 1 AND KPER 2

end timestep


start timestep kper="2" kstp="1698" mode="normal"


 FMI SETTING BUDGET TERMS FOR KSTP 1698 AND KPER 2 TO BUDGET FILE TERMS FROM KSTP 1 AND KPER 2

 FMI SETTING HEAD FOR KSTP 1698 AND KPER 2 TO BINARY FILE HEADS FROM KSTP 1 AND KPER 2

 SFR-1 SETTING BUDGET TERMS FOR KSTP 1698 AND KPER 2 TO BUDGET FILE TERMS FROM KSTP 1 AND KPER 2

end timestep


start timestep kper="2" kstp="1699" mode="normal"


 FMI SETTING BUDGET TERMS FOR KSTP 1699 AND KPER 2 TO BUDGET FILE TERMS FROM KSTP 1 AND KPER 2

 FMI SETTING HEAD FOR KSTP 1699 AND KPER 2 TO BINARY FILE HEADS FROM KSTP 1 AND KPER 2

 SFR-1 SETTING BUDGET TERMS FOR KSTP 1699 AND KPER 2 TO BUDGET FILE TERMS FROM KSTP 1 AND KPER 2

end timestep


start timestep kper="2" kstp="1700" mode="normal"


 FMI SETTING BUDGET TERMS FOR KSTP 1700 AND KPER 2 TO BUDGET FILE TERMS FROM KSTP 1 AND KPER 2

 FMI SETTING HEAD FOR KSTP 1700 AND KPER 2 TO BINARY FILE HEADS FROM KSTP 1 AND KPER 2

 SFR-1 SETTING BUDGET TERMS FOR KSTP 1700 AND KPER 2 TO BUDGET FILE TERMS FROM KSTP 1 AND KPER 2

 CONCENTRATION WILL BE SAVED ON UNIT 1024 AT END OF TIME STEP 1700, STRESS PERIOD    2

end timestep


start timestep kper="2" kstp="1701" mode="normal"


 FMI SETTING BUDGET TERMS FOR KSTP 1701 AND KPER 2 TO BUDGET FILE TERMS FROM KSTP 1 AND KPER 2

 FMI SETTING HEAD FOR KSTP 1701 AND KPER 2 TO BINARY FILE HEADS FROM KSTP 1 AND KPER 2

 SFR-1 SETTING BUDGET TERMS FOR KSTP 1701 AND KPER 2 TO BUDGET FILE TERMS FROM KSTP 1 AND KPER 2

end timestep


start timestep kper="2" kstp="1702" mode="normal"


 FMI SETTING BUDGET TERMS FOR KSTP 1702 AND KPER 2 TO BUDGET FILE TERMS FROM KSTP 1 AND KPER 2

 FMI SETTING HEAD FOR KSTP 1702 AND KPER 2 TO BINARY FILE HEADS FROM KSTP 1 AND KPER 2

 SFR-1 SETTING BUDGET TERMS FOR KSTP 1702 AND KPER 2 TO BUDGET FILE TERMS FROM KSTP 1 AND KPER 2

end timestep


start timestep kper="2" kstp="1703" mode="normal"


 FMI SETTING BUDGET TERMS FOR KSTP 1703 AND KPER 2 TO BUDGET FILE TERMS FROM KSTP 1 AND KPER 2

 FMI SETTING HEAD FOR KSTP 1703 AND KPER 2 TO BINARY FILE HEADS FROM KSTP 1 AND KPER 2

 SFR-1 SETTING BUDGET TERMS FOR KSTP 1703 AND KPER 2 TO BUDGET FILE TERMS FROM KSTP 1 AND KPER 2

end timestep


start timestep kper="2" kstp="1704" mode="normal"


 FMI SETTING BUDGET TERMS FOR KSTP 1704 AND KPER 2 TO BUDGET FILE TERMS FROM KSTP 1 AND KPER 2

 FMI SETTING HEAD FOR KSTP 1704 AND KPER 2 TO BINARY FILE HEADS FROM KSTP 1 AND KPER 2

 SFR-1 SETTING BUDGET TERMS FOR KSTP 1704 AND KPER 2 TO BUDGET FILE TERMS FROM KSTP 1 AND KPER 2

end timestep


start timestep kper="2" kstp="1705" mode="normal"


 FMI SETTING BUDGET TERMS FOR KSTP 1705 AND KPER 2 TO BUDGET FILE TERMS FROM KSTP 1 AND KPER 2

 FMI SETTING HEAD FOR KSTP 1705 AND KPER 2 TO BINARY FILE HEADS FROM KSTP 1 AND KPER 2

 SFR-1 SETTING BUDGET TERMS FOR KSTP 1705 AND KPER 2 TO BUDGET FILE TERMS FROM KSTP 1 AND KPER 2

end timestep


start timestep kper="2" kstp="1706" mode="normal"


 FMI SETTING BUDGET TERMS FOR KSTP 1706 AND KPER 2 TO BUDGET FILE TERMS FROM KSTP 1 AND KPER 2

 FMI SETTING HEAD FOR KSTP 1706 AND KPER 2 TO BINARY FILE HEADS FROM KSTP 1 AND KPER 2

 SFR-1 SETTING BUDGET TERMS FOR KSTP 1706 AND KPER 2 TO BUDGET FILE TERMS FROM KSTP 1 AND KPER 2

end timestep


start timestep kper="2" kstp="1707" mode="normal"


 FMI SETTING BUDGET TERMS FOR KSTP 1707 AND KPER 2 TO BUDGET FILE TERMS FROM KSTP 1 AND KPER 2

 FMI SETTING HEAD FOR KSTP 1707 AND KPER 2 TO BINARY FILE HEADS FROM KSTP 1 AND KPER 2

 SFR-1 SETTING BUDGET TERMS FOR KSTP 1707 AND KPER 2 TO BUDGET FILE TERMS FROM KSTP 1 AND KPER 2

end timestep


start timestep kper="2" kstp="1708" mode="normal"


 FMI SETTING BUDGET TERMS FOR KSTP 1708 AND KPER 2 TO BUDGET FILE TERMS FROM KSTP 1 AND KPER 2

 FMI SETTING HEAD FOR KSTP 1708 AND KPER 2 TO BINARY FILE HEADS FROM KSTP 1 AND KPER 2

 SFR-1 SETTING BUDGET TERMS FOR KSTP 1708 AND KPER 2 TO BUDGET FILE TERMS FROM KSTP 1 AND KPER 2

end timestep


start timestep kper="2" kstp="1709" mode="normal"


 FMI SETTING BUDGET TERMS FOR KSTP 1709 AND KPER 2 TO BUDGET FILE TERMS FROM KSTP 1 AND KPER 2

 FMI SETTING HEAD FOR KSTP 1709 AND KPER 2 TO BINARY FILE HEADS FROM KSTP 1 AND KPER 2

 SFR-1 SETTING BUDGET TERMS FOR KSTP 1709 AND KPER 2 TO BUDGET FILE TERMS FROM KSTP 1 AND KPER 2

end timestep


start timestep kper="2" kstp="1710" mode="normal"


 FMI SETTING BUDGET TERMS FOR KSTP 1710 AND KPER 2 TO BUDGET FILE TERMS FROM KSTP 1 AND KPER 2

 FMI SETTING HEAD FOR KSTP 1710 AND KPER 2 TO BINARY FILE HEADS FROM KSTP 1 AND KPER 2

 SFR-1 SETTING BUDGET TERMS FOR KSTP 1710 AND KPER 2 TO BUDGET FILE TERMS FROM KSTP 1 AND KPER 2

 CONCENTRATION WILL BE SAVED ON UNIT 1024 AT END OF TIME STEP 1710, STRESS PERIOD    2

end timestep


start timestep kper="2" kstp="1711" mode="normal"


 FMI SETTING BUDGET TERMS FOR KSTP 1711 AND KPER 2 TO BUDGET FILE TERMS FROM KSTP 1 AND KPER 2

 FMI SETTING HEAD FOR KSTP 1711 AND KPER 2 TO BINARY FILE HEADS FROM KSTP 1 AND KPER 2

 SFR-1 SETTING BUDGET TERMS FOR KSTP 1711 AND KPER 2 TO BUDGET FILE TERMS FROM KSTP 1 AND KPER 2

end timestep


start timestep kper="2" kstp="1712" mode="normal"


 FMI SETTING BUDGET TERMS FOR KSTP 1712 AND KPER 2 TO BUDGET FILE TERMS FROM KSTP 1 AND KPER 2

 FMI SETTING HEAD FOR KSTP 1712 AND KPER 2 TO BINARY FILE HEADS FROM KSTP 1 AND KPER 2

 SFR-1 SETTING BUDGET TERMS FOR KSTP 1712 AND KPER 2 TO BUDGET FILE TERMS FROM KSTP 1 AND KPER 2

end timestep


start timestep kper="2" kstp="1713" mode="normal"


 FMI SETTING BUDGET TERMS FOR KSTP 1713 AND KPER 2 TO BUDGET FILE TERMS FROM KSTP 1 AND KPER 2

 FMI SETTING HEAD FOR KSTP 1713 AND KPER 2 TO BINARY FILE HEADS FROM KSTP 1 AND KPER 2

 SFR-1 SETTING BUDGET TERMS FOR KSTP 1713 AND KPER 2 TO BUDGET FILE TERMS FROM KSTP 1 AND KPER 2

end timestep


start timestep kper="2" kstp="1714" mode="normal"


 FMI SETTING BUDGET TERMS FOR KSTP 1714 AND KPER 2 TO BUDGET FILE TERMS FROM KSTP 1 AND KPER 2

 FMI SETTING HEAD FOR KSTP 1714 AND KPER 2 TO BINARY FILE HEADS FROM KSTP 1 AND KPER 2

 SFR-1 SETTING BUDGET TERMS FOR KSTP 1714 AND KPER 2 TO BUDGET FILE TERMS FROM KSTP 1 AND KPER 2

end timestep


start timestep kper="2" kstp="1715" mode="normal"


 FMI SETTING BUDGET TERMS FOR KSTP 1715 AND KPER 2 TO BUDGET FILE TERMS FROM KSTP 1 AND KPER 2

 FMI SETTING HEAD FOR KSTP 1715 AND KPER 2 TO BINARY FILE HEADS FROM KSTP 1 AND KPER 2

 SFR-1 SETTING BUDGET TERMS FOR KSTP 1715 AND KPER 2 TO BUDGET FILE TERMS FROM KSTP 1 AND KPER 2

end timestep


start timestep kper="2" kstp="1716" mode="normal"


 FMI SETTING BUDGET TERMS FOR KSTP 1716 AND KPER 2 TO BUDGET FILE TERMS FROM KSTP 1 AND KPER 2

 FMI SETTING HEAD FOR KSTP 1716 AND KPER 2 TO BINARY FILE HEADS FROM KSTP 1 AND KPER 2

 SFR-1 SETTING BUDGET TERMS FOR KSTP 1716 AND KPER 2 TO BUDGET FILE TERMS FROM KSTP 1 AND KPER 2

end timestep


start timestep kper="2" kstp="1717" mode="normal"


 FMI SETTING BUDGET TERMS FOR KSTP 1717 AND KPER 2 TO BUDGET FILE TERMS FROM KSTP 1 AND KPER 2

 FMI SETTING HEAD FOR KSTP 1717 AND KPER 2 TO BINARY FILE HEADS FROM KSTP 1 AND KPER 2

 SFR-1 SETTING BUDGET TERMS FOR KSTP 1717 AND KPER 2 TO BUDGET FILE TERMS FROM KSTP 1 AND KPER 2

end timestep


start timestep kper="2" kstp="1718" mode="normal"


 FMI SETTING BUDGET TERMS FOR KSTP 1718 AND KPER 2 TO BUDGET FILE TERMS FROM KSTP 1 AND KPER 2

 FMI SETTING HEAD FOR KSTP 1718 AND KPER 2 TO BINARY FILE HEADS FROM KSTP 1 AND KPER 2

 SFR-1 SETTING BUDGET TERMS FOR KSTP 1718 AND KPER 2 TO BUDGET FILE TERMS FROM KSTP 1 AND KPER 2

end timestep


start timestep kper="2" kstp="1719" mode="normal"


 FMI SETTING BUDGET TERMS FOR KSTP 1719 AND KPER 2 TO BUDGET FILE TERMS FROM KSTP 1 AND KPER 2

 FMI SETTING HEAD FOR KSTP 1719 AND KPER 2 TO BINARY FILE HEADS FROM KSTP 1 AND KPER 2

 SFR-1 SETTING BUDGET TERMS FOR KSTP 1719 AND KPER 2 TO BUDGET FILE TERMS FROM KSTP 1 AND KPER 2

end timestep


start timestep kper="2" kstp="1720" mode="normal"


 FMI SETTING BUDGET TERMS FOR KSTP 1720 AND KPER 2 TO BUDGET FILE TERMS FROM KSTP 1 AND KPER 2

 FMI SETTING HEAD FOR KSTP 1720 AND KPER 2 TO BINARY FILE HEADS FROM KSTP 1 AND KPER 2

 SFR-1 SETTING BUDGET TERMS FOR KSTP 1720 AND KPER 2 TO BUDGET FILE TERMS FROM KSTP 1 AND KPER 2

 CONCENTRATION WILL BE SAVED ON UNIT 1024 AT END OF TIME STEP 1720, STRESS PERIOD    2

end timestep


start timestep kper="2" kstp="1721" mode="normal"


 FMI SETTING BUDGET TERMS FOR KSTP 1721 AND KPER 2 TO BUDGET FILE TERMS FROM KSTP 1 AND KPER 2

 FMI SETTING HEAD FOR KSTP 1721 AND KPER 2 TO BINARY FILE HEADS FROM KSTP 1 AND KPER 2

 SFR-1 SETTING BUDGET TERMS FOR KSTP 1721 AND KPER 2 TO BUDGET FILE TERMS FROM KSTP 1 AND KPER 2

end timestep


start timestep kper="2" kstp="1722" mode="normal"


 FMI SETTING BUDGET TERMS FOR KSTP 1722 AND KPER 2 TO BUDGET FILE TERMS FROM KSTP 1 AND KPER 2

 FMI SETTING HEAD FOR KSTP 1722 AND KPER 2 TO BINARY FILE HEADS FROM KSTP 1 AND KPER 2

 SFR-1 SETTING BUDGET TERMS FOR KSTP 1722 AND KPER 2 TO BUDGET FILE TERMS FROM KSTP 1 AND KPER 2

end timestep


start timestep kper="2" kstp="1723" mode="normal"


 FMI SETTING BUDGET TERMS FOR KSTP 1723 AND KPER 2 TO BUDGET FILE TERMS FROM KSTP 1 AND KPER 2

 FMI SETTING HEAD FOR KSTP 1723 AND KPER 2 TO BINARY FILE HEADS FROM KSTP 1 AND KPER 2

 SFR-1 SETTING BUDGET TERMS FOR KSTP 1723 AND KPER 2 TO BUDGET FILE TERMS FROM KSTP 1 AND KPER 2

end timestep


start timestep kper="2" kstp="1724" mode="normal"


 FMI SETTING BUDGET TERMS FOR KSTP 1724 AND KPER 2 TO BUDGET FILE TERMS FROM KSTP 1 AND KPER 2

 FMI SETTING HEAD FOR KSTP 1724 AND KPER 2 TO BINARY FILE HEADS FROM KSTP 1 AND KPER 2

 SFR-1 SETTING BUDGET TERMS FOR KSTP 1724 AND KPER 2 TO BUDGET FILE TERMS FROM KSTP 1 AND KPER 2

end timestep


start timestep kper="2" kstp="1725" mode="normal"


 FMI SETTING BUDGET TERMS FOR KSTP 1725 AND KPER 2 TO BUDGET FILE TERMS FROM KSTP 1 AND KPER 2

 FMI SETTING HEAD FOR KSTP 1725 AND KPER 2 TO BINARY FILE HEADS FROM KSTP 1 AND KPER 2

 SFR-1 SETTING BUDGET TERMS FOR KSTP 1725 AND KPER 2 TO BUDGET FILE TERMS FROM KSTP 1 AND KPER 2

end timestep


start timestep kper="2" kstp="1726" mode="normal"


 FMI SETTING BUDGET TERMS FOR KSTP 1726 AND KPER 2 TO BUDGET FILE TERMS FROM KSTP 1 AND KPER 2

 FMI SETTING HEAD FOR KSTP 1726 AND KPER 2 TO BINARY FILE HEADS FROM KSTP 1 AND KPER 2

 SFR-1 SETTING BUDGET TERMS FOR KSTP 1726 AND KPER 2 TO BUDGET FILE TERMS FROM KSTP 1 AND KPER 2

end timestep


start timestep kper="2" kstp="1727" mode="normal"


 FMI SETTING BUDGET TERMS FOR KSTP 1727 AND KPER 2 TO BUDGET FILE TERMS FROM KSTP 1 AND KPER 2

 FMI SETTING HEAD FOR KSTP 1727 AND KPER 2 TO BINARY FILE HEADS FROM KSTP 1 AND KPER 2

 SFR-1 SETTING BUDGET TERMS FOR KSTP 1727 AND KPER 2 TO BUDGET FILE TERMS FROM KSTP 1 AND KPER 2

end timestep


start timestep kper="2" kstp="1728" mode="normal"


 FMI SETTING BUDGET TERMS FOR KSTP 1728 AND KPER 2 TO BUDGET FILE TERMS FROM KSTP 1 AND KPER 2

 FMI SETTING HEAD FOR KSTP 1728 AND KPER 2 TO BINARY FILE HEADS FROM KSTP 1 AND KPER 2

 SFR-1 SETTING BUDGET TERMS FOR KSTP 1728 AND KPER 2 TO BUDGET FILE TERMS FROM KSTP 1 AND KPER 2

end timestep


start timestep kper="2" kstp="1729" mode="normal"


 FMI SETTING BUDGET TERMS FOR KSTP 1729 AND KPER 2 TO BUDGET FILE TERMS FROM KSTP 1 AND KPER 2

 FMI SETTING HEAD FOR KSTP 1729 AND KPER 2 TO BINARY FILE HEADS FROM KSTP 1 AND KPER 2

 SFR-1 SETTING BUDGET TERMS FOR KSTP 1729 AND KPER 2 TO BUDGET FILE TERMS FROM KSTP 1 AND KPER 2

end timestep


start timestep kper="2" kstp="1730" mode="normal"


 FMI SETTING BUDGET TERMS FOR KSTP 1730 AND KPER 2 TO BUDGET FILE TERMS FROM KSTP 1 AND KPER 2

 FMI SETTING HEAD FOR KSTP 1730 AND KPER 2 TO BINARY FILE HEADS FROM KSTP 1 AND KPER 2

 SFR-1 SETTING BUDGET TERMS FOR KSTP 1730 AND KPER 2 TO BUDGET FILE TERMS FROM KSTP 1 AND KPER 2

 CONCENTRATION WILL BE SAVED ON UNIT 1024 AT END OF TIME STEP 1730, STRESS PERIOD    2

end timestep


start timestep kper="2" kstp="1731" mode="normal"


 FMI SETTING BUDGET TERMS FOR KSTP 1731 AND KPER 2 TO BUDGET FILE TERMS FROM KSTP 1 AND KPER 2

 FMI SETTING HEAD FOR KSTP 1731 AND KPER 2 TO BINARY FILE HEADS FROM KSTP 1 AND KPER 2

 SFR-1 SETTING BUDGET TERMS FOR KSTP 1731 AND KPER 2 TO BUDGET FILE TERMS FROM KSTP 1 AND KPER 2

end timestep


start timestep kper="2" kstp="1732" mode="normal"


 FMI SETTING BUDGET TERMS FOR KSTP 1732 AND KPER 2 TO BUDGET FILE TERMS FROM KSTP 1 AND KPER 2

 FMI SETTING HEAD FOR KSTP 1732 AND KPER 2 TO BINARY FILE HEADS FROM KSTP 1 AND KPER 2

 SFR-1 SETTING BUDGET TERMS FOR KSTP 1732 AND KPER 2 TO BUDGET FILE TERMS FROM KSTP 1 AND KPER 2

end timestep


start timestep kper="2" kstp="1733" mode="normal"


 FMI SETTING BUDGET TERMS FOR KSTP 1733 AND KPER 2 TO BUDGET FILE TERMS FROM KSTP 1 AND KPER 2

 FMI SETTING HEAD FOR KSTP 1733 AND KPER 2 TO BINARY FILE HEADS FROM KSTP 1 AND KPER 2

 SFR-1 SETTING BUDGET TERMS FOR KSTP 1733 AND KPER 2 TO BUDGET FILE TERMS FROM KSTP 1 AND KPER 2

end timestep


start timestep kper="2" kstp="1734" mode="normal"


 FMI SETTING BUDGET TERMS FOR KSTP 1734 AND KPER 2 TO BUDGET FILE TERMS FROM KSTP 1 AND KPER 2

 FMI SETTING HEAD FOR KSTP 1734 AND KPER 2 TO BINARY FILE HEADS FROM KSTP 1 AND KPER 2

 SFR-1 SETTING BUDGET TERMS FOR KSTP 1734 AND KPER 2 TO BUDGET FILE TERMS FROM KSTP 1 AND KPER 2

end timestep


start timestep kper="2" kstp="1735" mode="normal"


 FMI SETTING BUDGET TERMS FOR KSTP 1735 AND KPER 2 TO BUDGET FILE TERMS FROM KSTP 1 AND KPER 2

 FMI SETTING HEAD FOR KSTP 1735 AND KPER 2 TO BINARY FILE HEADS FROM KSTP 1 AND KPER 2

 SFR-1 SETTING BUDGET TERMS FOR KSTP 1735 AND KPER 2 TO BUDGET FILE TERMS FROM KSTP 1 AND KPER 2

end timestep


start timestep kper="2" kstp="1736" mode="normal"


 FMI SETTING BUDGET TERMS FOR KSTP 1736 AND KPER 2 TO BUDGET FILE TERMS FROM KSTP 1 AND KPER 2

 FMI SETTING HEAD FOR KSTP 1736 AND KPER 2 TO BINARY FILE HEADS FROM KSTP 1 AND KPER 2

 SFR-1 SETTING BUDGET TERMS FOR KSTP 1736 AND KPER 2 TO BUDGET FILE TERMS FROM KSTP 1 AND KPER 2

end timestep


start timestep kper="2" kstp="1737" mode="normal"


 FMI SETTING BUDGET TERMS FOR KSTP 1737 AND KPER 2 TO BUDGET FILE TERMS FROM KSTP 1 AND KPER 2

 FMI SETTING HEAD FOR KSTP 1737 AND KPER 2 TO BINARY FILE HEADS FROM KSTP 1 AND KPER 2

 SFR-1 SETTING BUDGET TERMS FOR KSTP 1737 AND KPER 2 TO BUDGET FILE TERMS FROM KSTP 1 AND KPER 2

end timestep


start timestep kper="2" kstp="1738" mode="normal"


 FMI SETTING BUDGET TERMS FOR KSTP 1738 AND KPER 2 TO BUDGET FILE TERMS FROM KSTP 1 AND KPER 2

 FMI SETTING HEAD FOR KSTP 1738 AND KPER 2 TO BINARY FILE HEADS FROM KSTP 1 AND KPER 2

 SFR-1 SETTING BUDGET TERMS FOR KSTP 1738 AND KPER 2 TO BUDGET FILE TERMS FROM KSTP 1 AND KPER 2

end timestep


start timestep kper="2" kstp="1739" mode="normal"


 FMI SETTING BUDGET TERMS FOR KSTP 1739 AND KPER 2 TO BUDGET FILE TERMS FROM KSTP 1 AND KPER 2

 FMI SETTING HEAD FOR KSTP 1739 AND KPER 2 TO BINARY FILE HEADS FROM KSTP 1 AND KPER 2

 SFR-1 SETTING BUDGET TERMS FOR KSTP 1739 AND KPER 2 TO BUDGET FILE TERMS FROM KSTP 1 AND KPER 2

end timestep


start timestep kper="2" kstp="1740" mode="normal"


 FMI SETTING BUDGET TERMS FOR KSTP 1740 AND KPER 2 TO BUDGET FILE TERMS FROM KSTP 1 AND KPER 2

 FMI SETTING HEAD FOR KSTP 1740 AND KPER 2 TO BINARY FILE HEADS FROM KSTP 1 AND KPER 2

 SFR-1 SETTING BUDGET TERMS FOR KSTP 1740 AND KPER 2 TO BUDGET FILE TERMS FROM KSTP 1 AND KPER 2

 CONCENTRATION WILL BE SAVED ON UNIT 1024 AT END OF TIME STEP 1740, STRESS PERIOD    2

end timestep


start timestep kper="2" kstp="1741" mode="normal"


 FMI SETTING BUDGET TERMS FOR KSTP 1741 AND KPER 2 TO BUDGET FILE TERMS FROM KSTP 1 AND KPER 2

 FMI SETTING HEAD FOR KSTP 1741 AND KPER 2 TO BINARY FILE HEADS FROM KSTP 1 AND KPER 2

 SFR-1 SETTING BUDGET TERMS FOR KSTP 1741 AND KPER 2 TO BUDGET FILE TERMS FROM KSTP 1 AND KPER 2

end timestep


start timestep kper="2" kstp="1742" mode="normal"


 FMI SETTING BUDGET TERMS FOR KSTP 1742 AND KPER 2 TO BUDGET FILE TERMS FROM KSTP 1 AND KPER 2

 FMI SETTING HEAD FOR KSTP 1742 AND KPER 2 TO BINARY FILE HEADS FROM KSTP 1 AND KPER 2

 SFR-1 SETTING BUDGET TERMS FOR KSTP 1742 AND KPER 2 TO BUDGET FILE TERMS FROM KSTP 1 AND KPER 2

end timestep


start timestep kper="2" kstp="1743" mode="normal"


 FMI SETTING BUDGET TERMS FOR KSTP 1743 AND KPER 2 TO BUDGET FILE TERMS FROM KSTP 1 AND KPER 2

 FMI SETTING HEAD FOR KSTP 1743 AND KPER 2 TO BINARY FILE HEADS FROM KSTP 1 AND KPER 2

 SFR-1 SETTING BUDGET TERMS FOR KSTP 1743 AND KPER 2 TO BUDGET FILE TERMS FROM KSTP 1 AND KPER 2

end timestep


start timestep kper="2" kstp="1744" mode="normal"


 FMI SETTING BUDGET TERMS FOR KSTP 1744 AND KPER 2 TO BUDGET FILE TERMS FROM KSTP 1 AND KPER 2

 FMI SETTING HEAD FOR KSTP 1744 AND KPER 2 TO BINARY FILE HEADS FROM KSTP 1 AND KPER 2

 SFR-1 SETTING BUDGET TERMS FOR KSTP 1744 AND KPER 2 TO BUDGET FILE TERMS FROM KSTP 1 AND KPER 2

end timestep


start timestep kper="2" kstp="1745" mode="normal"


 FMI SETTING BUDGET TERMS FOR KSTP 1745 AND KPER 2 TO BUDGET FILE TERMS FROM KSTP 1 AND KPER 2

 FMI SETTING HEAD FOR KSTP 1745 AND KPER 2 TO BINARY FILE HEADS FROM KSTP 1 AND KPER 2

 SFR-1 SETTING BUDGET TERMS FOR KSTP 1745 AND KPER 2 TO BUDGET FILE TERMS FROM KSTP 1 AND KPER 2

end timestep


start timestep kper="2" kstp="1746" mode="normal"


 FMI SETTING BUDGET TERMS FOR KSTP 1746 AND KPER 2 TO BUDGET FILE TERMS FROM KSTP 1 AND KPER 2

 FMI SETTING HEAD FOR KSTP 1746 AND KPER 2 TO BINARY FILE HEADS FROM KSTP 1 AND KPER 2

 SFR-1 SETTING BUDGET TERMS FOR KSTP 1746 AND KPER 2 TO BUDGET FILE TERMS FROM KSTP 1 AND KPER 2

end timestep


start timestep kper="2" kstp="1747" mode="normal"


 FMI SETTING BUDGET TERMS FOR KSTP 1747 AND KPER 2 TO BUDGET FILE TERMS FROM KSTP 1 AND KPER 2

 FMI SETTING HEAD FOR KSTP 1747 AND KPER 2 TO BINARY FILE HEADS FROM KSTP 1 AND KPER 2

 SFR-1 SETTING BUDGET TERMS FOR KSTP 1747 AND KPER 2 TO BUDGET FILE TERMS FROM KSTP 1 AND KPER 2

end timestep


start timestep kper="2" kstp="1748" mode="normal"


 FMI SETTING BUDGET TERMS FOR KSTP 1748 AND KPER 2 TO BUDGET FILE TERMS FROM KSTP 1 AND KPER 2

 FMI SETTING HEAD FOR KSTP 1748 AND KPER 2 TO BINARY FILE HEADS FROM KSTP 1 AND KPER 2

 SFR-1 SETTING BUDGET TERMS FOR KSTP 1748 AND KPER 2 TO BUDGET FILE TERMS FROM KSTP 1 AND KPER 2

end timestep


start timestep kper="2" kstp="1749" mode="normal"


 FMI SETTING BUDGET TERMS FOR KSTP 1749 AND KPER 2 TO BUDGET FILE TERMS FROM KSTP 1 AND KPER 2

 FMI SETTING HEAD FOR KSTP 1749 AND KPER 2 TO BINARY FILE HEADS FROM KSTP 1 AND KPER 2

 SFR-1 SETTING BUDGET TERMS FOR KSTP 1749 AND KPER 2 TO BUDGET FILE TERMS FROM KSTP 1 AND KPER 2

end timestep


start timestep kper="2" kstp="1750" mode="normal"


 FMI SETTING BUDGET TERMS FOR KSTP 1750 AND KPER 2 TO BUDGET FILE TERMS FROM KSTP 1 AND KPER 2

 FMI SETTING HEAD FOR KSTP 1750 AND KPER 2 TO BINARY FILE HEADS FROM KSTP 1 AND KPER 2

 SFR-1 SETTING BUDGET TERMS FOR KSTP 1750 AND KPER 2 TO BUDGET FILE TERMS FROM KSTP 1 AND KPER 2

 CONCENTRATION WILL BE SAVED ON UNIT 1024 AT END OF TIME STEP 1750, STRESS PERIOD    2

end timestep


start timestep kper="2" kstp="1751" mode="normal"


 FMI SETTING BUDGET TERMS FOR KSTP 1751 AND KPER 2 TO BUDGET FILE TERMS FROM KSTP 1 AND KPER 2

 FMI SETTING HEAD FOR KSTP 1751 AND KPER 2 TO BINARY FILE HEADS FROM KSTP 1 AND KPER 2

 SFR-1 SETTING BUDGET TERMS FOR KSTP 1751 AND KPER 2 TO BUDGET FILE TERMS FROM KSTP 1 AND KPER 2

end timestep


start timestep kper="2" kstp="1752" mode="normal"


 FMI SETTING BUDGET TERMS FOR KSTP 1752 AND KPER 2 TO BUDGET FILE TERMS FROM KSTP 1 AND KPER 2

 FMI SETTING HEAD FOR KSTP 1752 AND KPER 2 TO BINARY FILE HEADS FROM KSTP 1 AND KPER 2

 SFR-1 SETTING BUDGET TERMS FOR KSTP 1752 AND KPER 2 TO BUDGET FILE TERMS FROM KSTP 1 AND KPER 2

end timestep


start timestep kper="2" kstp="1753" mode="normal"


 FMI SETTING BUDGET TERMS FOR KSTP 1753 AND KPER 2 TO BUDGET FILE TERMS FROM KSTP 1 AND KPER 2

 FMI SETTING HEAD FOR KSTP 1753 AND KPER 2 TO BINARY FILE HEADS FROM KSTP 1 AND KPER 2

 SFR-1 SETTING BUDGET TERMS FOR KSTP 1753 AND KPER 2 TO BUDGET FILE TERMS FROM KSTP 1 AND KPER 2

end timestep


start timestep kper="2" kstp="1754" mode="normal"


 FMI SETTING BUDGET TERMS FOR KSTP 1754 AND KPER 2 TO BUDGET FILE TERMS FROM KSTP 1 AND KPER 2

 FMI SETTING HEAD FOR KSTP 1754 AND KPER 2 TO BINARY FILE HEADS FROM KSTP 1 AND KPER 2

 SFR-1 SETTING BUDGET TERMS FOR KSTP 1754 AND KPER 2 TO BUDGET FILE TERMS FROM KSTP 1 AND KPER 2

end timestep


start timestep kper="2" kstp="1755" mode="normal"


 FMI SETTING BUDGET TERMS FOR KSTP 1755 AND KPER 2 TO BUDGET FILE TERMS FROM KSTP 1 AND KPER 2

 FMI SETTING HEAD FOR KSTP 1755 AND KPER 2 TO BINARY FILE HEADS FROM KSTP 1 AND KPER 2

 SFR-1 SETTING BUDGET TERMS FOR KSTP 1755 AND KPER 2 TO BUDGET FILE TERMS FROM KSTP 1 AND KPER 2

end timestep


start timestep kper="2" kstp="1756" mode="normal"


 FMI SETTING BUDGET TERMS FOR KSTP 1756 AND KPER 2 TO BUDGET FILE TERMS FROM KSTP 1 AND KPER 2

 FMI SETTING HEAD FOR KSTP 1756 AND KPER 2 TO BINARY FILE HEADS FROM KSTP 1 AND KPER 2

 SFR-1 SETTING BUDGET TERMS FOR KSTP 1756 AND KPER 2 TO BUDGET FILE TERMS FROM KSTP 1 AND KPER 2

end timestep


start timestep kper="2" kstp="1757" mode="normal"


 FMI SETTING BUDGET TERMS FOR KSTP 1757 AND KPER 2 TO BUDGET FILE TERMS FROM KSTP 1 AND KPER 2

 FMI SETTING HEAD FOR KSTP 1757 AND KPER 2 TO BINARY FILE HEADS FROM KSTP 1 AND KPER 2

 SFR-1 SETTING BUDGET TERMS FOR KSTP 1757 AND KPER 2 TO BUDGET FILE TERMS FROM KSTP 1 AND KPER 2

end timestep


start timestep kper="2" kstp="1758" mode="normal"


 FMI SETTING BUDGET TERMS FOR KSTP 1758 AND KPER 2 TO BUDGET FILE TERMS FROM KSTP 1 AND KPER 2

 FMI SETTING HEAD FOR KSTP 1758 AND KPER 2 TO BINARY FILE HEADS FROM KSTP 1 AND KPER 2

 SFR-1 SETTING BUDGET TERMS FOR KSTP 1758 AND KPER 2 TO BUDGET FILE TERMS FROM KSTP 1 AND KPER 2

end timestep


start timestep kper="2" kstp="1759" mode="normal"


 FMI SETTING BUDGET TERMS FOR KSTP 1759 AND KPER 2 TO BUDGET FILE TERMS FROM KSTP 1 AND KPER 2

 FMI SETTING HEAD FOR KSTP 1759 AND KPER 2 TO BINARY FILE HEADS FROM KSTP 1 AND KPER 2

 SFR-1 SETTING BUDGET TERMS FOR KSTP 1759 AND KPER 2 TO BUDGET FILE TERMS FROM KSTP 1 AND KPER 2

end timestep


start timestep kper="2" kstp="1760" mode="normal"


 FMI SETTING BUDGET TERMS FOR KSTP 1760 AND KPER 2 TO BUDGET FILE TERMS FROM KSTP 1 AND KPER 2

 FMI SETTING HEAD FOR KSTP 1760 AND KPER 2 TO BINARY FILE HEADS FROM KSTP 1 AND KPER 2

 SFR-1 SETTING BUDGET TERMS FOR KSTP 1760 AND KPER 2 TO BUDGET FILE TERMS FROM KSTP 1 AND KPER 2

 CONCENTRATION WILL BE SAVED ON UNIT 1024 AT END OF TIME STEP 1760, STRESS PERIOD    2

end timestep


start timestep kper="2" kstp="1761" mode="normal"


 FMI SETTING BUDGET TERMS FOR KSTP 1761 AND KPER 2 TO BUDGET FILE TERMS FROM KSTP 1 AND KPER 2

 FMI SETTING HEAD FOR KSTP 1761 AND KPER 2 TO BINARY FILE HEADS FROM KSTP 1 AND KPER 2

 SFR-1 SETTING BUDGET TERMS FOR KSTP 1761 AND KPER 2 TO BUDGET FILE TERMS FROM KSTP 1 AND KPER 2

end timestep


start timestep kper="2" kstp="1762" mode="normal"


 FMI SETTING BUDGET TERMS FOR KSTP 1762 AND KPER 2 TO BUDGET FILE TERMS FROM KSTP 1 AND KPER 2

 FMI SETTING HEAD FOR KSTP 1762 AND KPER 2 TO BINARY FILE HEADS FROM KSTP 1 AND KPER 2

 SFR-1 SETTING BUDGET TERMS FOR KSTP 1762 AND KPER 2 TO BUDGET FILE TERMS FROM KSTP 1 AND KPER 2

end timestep


start timestep kper="2" kstp="1763" mode="normal"


 FMI SETTING BUDGET TERMS FOR KSTP 1763 AND KPER 2 TO BUDGET FILE TERMS FROM KSTP 1 AND KPER 2

 FMI SETTING HEAD FOR KSTP 1763 AND KPER 2 TO BINARY FILE HEADS FROM KSTP 1 AND KPER 2

 SFR-1 SETTING BUDGET TERMS FOR KSTP 1763 AND KPER 2 TO BUDGET FILE TERMS FROM KSTP 1 AND KPER 2

end timestep


start timestep kper="2" kstp="1764" mode="normal"


 FMI SETTING BUDGET TERMS FOR KSTP 1764 AND KPER 2 TO BUDGET FILE TERMS FROM KSTP 1 AND KPER 2

 FMI SETTING HEAD FOR KSTP 1764 AND KPER 2 TO BINARY FILE HEADS FROM KSTP 1 AND KPER 2

 SFR-1 SETTING BUDGET TERMS FOR KSTP 1764 AND KPER 2 TO BUDGET FILE TERMS FROM KSTP 1 AND KPER 2

end timestep


start timestep kper="2" kstp="1765" mode="normal"


 FMI SETTING BUDGET TERMS FOR KSTP 1765 AND KPER 2 TO BUDGET FILE TERMS FROM KSTP 1 AND KPER 2

 FMI SETTING HEAD FOR KSTP 1765 AND KPER 2 TO BINARY FILE HEADS FROM KSTP 1 AND KPER 2

 SFR-1 SETTING BUDGET TERMS FOR KSTP 1765 AND KPER 2 TO BUDGET FILE TERMS FROM KSTP 1 AND KPER 2

end timestep


start timestep kper="2" kstp="1766" mode="normal"


 FMI SETTING BUDGET TERMS FOR KSTP 1766 AND KPER 2 TO BUDGET FILE TERMS FROM KSTP 1 AND KPER 2

 FMI SETTING HEAD FOR KSTP 1766 AND KPER 2 TO BINARY FILE HEADS FROM KSTP 1 AND KPER 2

 SFR-1 SETTING BUDGET TERMS FOR KSTP 1766 AND KPER 2 TO BUDGET FILE TERMS FROM KSTP 1 AND KPER 2

end timestep


start timestep kper="2" kstp="1767" mode="normal"


 FMI SETTING BUDGET TERMS FOR KSTP 1767 AND KPER 2 TO BUDGET FILE TERMS FROM KSTP 1 AND KPER 2

 FMI SETTING HEAD FOR KSTP 1767 AND KPER 2 TO BINARY FILE HEADS FROM KSTP 1 AND KPER 2

 SFR-1 SETTING BUDGET TERMS FOR KSTP 1767 AND KPER 2 TO BUDGET FILE TERMS FROM KSTP 1 AND KPER 2

end timestep


start timestep kper="2" kstp="1768" mode="normal"


 FMI SETTING BUDGET TERMS FOR KSTP 1768 AND KPER 2 TO BUDGET FILE TERMS FROM KSTP 1 AND KPER 2

 FMI SETTING HEAD FOR KSTP 1768 AND KPER 2 TO BINARY FILE HEADS FROM KSTP 1 AND KPER 2

 SFR-1 SETTING BUDGET TERMS FOR KSTP 1768 AND KPER 2 TO BUDGET FILE TERMS FROM KSTP 1 AND KPER 2

end timestep


start timestep kper="2" kstp="1769" mode="normal"


 FMI SETTING BUDGET TERMS FOR KSTP 1769 AND KPER 2 TO BUDGET FILE TERMS FROM KSTP 1 AND KPER 2

 FMI SETTING HEAD FOR KSTP 1769 AND KPER 2 TO BINARY FILE HEADS FROM KSTP 1 AND KPER 2

 SFR-1 SETTING BUDGET TERMS FOR KSTP 1769 AND KPER 2 TO BUDGET FILE TERMS FROM KSTP 1 AND KPER 2

end timestep


start timestep kper="2" kstp="1770" mode="normal"


 FMI SETTING BUDGET TERMS FOR KSTP 1770 AND KPER 2 TO BUDGET FILE TERMS FROM KSTP 1 AND KPER 2

 FMI SETTING HEAD FOR KSTP 1770 AND KPER 2 TO BINARY FILE HEADS FROM KSTP 1 AND KPER 2

 SFR-1 SETTING BUDGET TERMS FOR KSTP 1770 AND KPER 2 TO BUDGET FILE TERMS FROM KSTP 1 AND KPER 2

 CONCENTRATION WILL BE SAVED ON UNIT 1024 AT END OF TIME STEP 1770, STRESS PERIOD    2

end timestep


start timestep kper="2" kstp="1771" mode="normal"


 FMI SETTING BUDGET TERMS FOR KSTP 1771 AND KPER 2 TO BUDGET FILE TERMS FROM KSTP 1 AND KPER 2

 FMI SETTING HEAD FOR KSTP 1771 AND KPER 2 TO BINARY FILE HEADS FROM KSTP 1 AND KPER 2

 SFR-1 SETTING BUDGET TERMS FOR KSTP 1771 AND KPER 2 TO BUDGET FILE TERMS FROM KSTP 1 AND KPER 2

end timestep


start timestep kper="2" kstp="1772" mode="normal"


 FMI SETTING BUDGET TERMS FOR KSTP 1772 AND KPER 2 TO BUDGET FILE TERMS FROM KSTP 1 AND KPER 2

 FMI SETTING HEAD FOR KSTP 1772 AND KPER 2 TO BINARY FILE HEADS FROM KSTP 1 AND KPER 2

 SFR-1 SETTING BUDGET TERMS FOR KSTP 1772 AND KPER 2 TO BUDGET FILE TERMS FROM KSTP 1 AND KPER 2

end timestep


start timestep kper="2" kstp="1773" mode="normal"


 FMI SETTING BUDGET TERMS FOR KSTP 1773 AND KPER 2 TO BUDGET FILE TERMS FROM KSTP 1 AND KPER 2

 FMI SETTING HEAD FOR KSTP 1773 AND KPER 2 TO BINARY FILE HEADS FROM KSTP 1 AND KPER 2

 SFR-1 SETTING BUDGET TERMS FOR KSTP 1773 AND KPER 2 TO BUDGET FILE TERMS FROM KSTP 1 AND KPER 2

end timestep


start timestep kper="2" kstp="1774" mode="normal"


 FMI SETTING BUDGET TERMS FOR KSTP 1774 AND KPER 2 TO BUDGET FILE TERMS FROM KSTP 1 AND KPER 2

 FMI SETTING HEAD FOR KSTP 1774 AND KPER 2 TO BINARY FILE HEADS FROM KSTP 1 AND KPER 2

 SFR-1 SETTING BUDGET TERMS FOR KSTP 1774 AND KPER 2 TO BUDGET FILE TERMS FROM KSTP 1 AND KPER 2

end timestep


start timestep kper="2" kstp="1775" mode="normal"


 FMI SETTING BUDGET TERMS FOR KSTP 1775 AND KPER 2 TO BUDGET FILE TERMS FROM KSTP 1 AND KPER 2

 FMI SETTING HEAD FOR KSTP 1775 AND KPER 2 TO BINARY FILE HEADS FROM KSTP 1 AND KPER 2

 SFR-1 SETTING BUDGET TERMS FOR KSTP 1775 AND KPER 2 TO BUDGET FILE TERMS FROM KSTP 1 AND KPER 2

end timestep


start timestep kper="2" kstp="1776" mode="normal"


 FMI SETTING BUDGET TERMS FOR KSTP 1776 AND KPER 2 TO BUDGET FILE TERMS FROM KSTP 1 AND KPER 2

 FMI SETTING HEAD FOR KSTP 1776 AND KPER 2 TO BINARY FILE HEADS FROM KSTP 1 AND KPER 2

 SFR-1 SETTING BUDGET TERMS FOR KSTP 1776 AND KPER 2 TO BUDGET FILE TERMS FROM KSTP 1 AND KPER 2

end timestep


start timestep kper="2" kstp="1777" mode="normal"


 FMI SETTING BUDGET TERMS FOR KSTP 1777 AND KPER 2 TO BUDGET FILE TERMS FROM KSTP 1 AND KPER 2

 FMI SETTING HEAD FOR KSTP 1777 AND KPER 2 TO BINARY FILE HEADS FROM KSTP 1 AND KPER 2

 SFR-1 SETTING BUDGET TERMS FOR KSTP 1777 AND KPER 2 TO BUDGET FILE TERMS FROM KSTP 1 AND KPER 2

end timestep


start timestep kper="2" kstp="1778" mode="normal"


 FMI SETTING BUDGET TERMS FOR KSTP 1778 AND KPER 2 TO BUDGET FILE TERMS FROM KSTP 1 AND KPER 2

 FMI SETTING HEAD FOR KSTP 1778 AND KPER 2 TO BINARY FILE HEADS FROM KSTP 1 AND KPER 2

 SFR-1 SETTING BUDGET TERMS FOR KSTP 1778 AND KPER 2 TO BUDGET FILE TERMS FROM KSTP 1 AND KPER 2

end timestep


start timestep kper="2" kstp="1779" mode="normal"


 FMI SETTING BUDGET TERMS FOR KSTP 1779 AND KPER 2 TO BUDGET FILE TERMS FROM KSTP 1 AND KPER 2

 FMI SETTING HEAD FOR KSTP 1779 AND KPER 2 TO BINARY FILE HEADS FROM KSTP 1 AND KPER 2

 SFR-1 SETTING BUDGET TERMS FOR KSTP 1779 AND KPER 2 TO BUDGET FILE TERMS FROM KSTP 1 AND KPER 2

end timestep


start timestep kper="2" kstp="1780" mode="normal"


 FMI SETTING BUDGET TERMS FOR KSTP 1780 AND KPER 2 TO BUDGET FILE TERMS FROM KSTP 1 AND KPER 2

 FMI SETTING HEAD FOR KSTP 1780 AND KPER 2 TO BINARY FILE HEADS FROM KSTP 1 AND KPER 2

 SFR-1 SETTING BUDGET TERMS FOR KSTP 1780 AND KPER 2 TO BUDGET FILE TERMS FROM KSTP 1 AND KPER 2

 CONCENTRATION WILL BE SAVED ON UNIT 1024 AT END OF TIME STEP 1780, STRESS PERIOD    2

end timestep


start timestep kper="2" kstp="1781" mode="normal"


 FMI SETTING BUDGET TERMS FOR KSTP 1781 AND KPER 2 TO BUDGET FILE TERMS FROM KSTP 1 AND KPER 2

 FMI SETTING HEAD FOR KSTP 1781 AND KPER 2 TO BINARY FILE HEADS FROM KSTP 1 AND KPER 2

 SFR-1 SETTING BUDGET TERMS FOR KSTP 1781 AND KPER 2 TO BUDGET FILE TERMS FROM KSTP 1 AND KPER 2

end timestep


start timestep kper="2" kstp="1782" mode="normal"


 FMI SETTING BUDGET TERMS FOR KSTP 1782 AND KPER 2 TO BUDGET FILE TERMS FROM KSTP 1 AND KPER 2

 FMI SETTING HEAD FOR KSTP 1782 AND KPER 2 TO BINARY FILE HEADS FROM KSTP 1 AND KPER 2

 SFR-1 SETTING BUDGET TERMS FOR KSTP 1782 AND KPER 2 TO BUDGET FILE TERMS FROM KSTP 1 AND KPER 2

end timestep


start timestep kper="2" kstp="1783" mode="normal"


 FMI SETTING BUDGET TERMS FOR KSTP 1783 AND KPER 2 TO BUDGET FILE TERMS FROM KSTP 1 AND KPER 2

 FMI SETTING HEAD FOR KSTP 1783 AND KPER 2 TO BINARY FILE HEADS FROM KSTP 1 AND KPER 2

 SFR-1 SETTING BUDGET TERMS FOR KSTP 1783 AND KPER 2 TO BUDGET FILE TERMS FROM KSTP 1 AND KPER 2

end timestep


start timestep kper="2" kstp="1784" mode="normal"


 FMI SETTING BUDGET TERMS FOR KSTP 1784 AND KPER 2 TO BUDGET FILE TERMS FROM KSTP 1 AND KPER 2

 FMI SETTING HEAD FOR KSTP 1784 AND KPER 2 TO BINARY FILE HEADS FROM KSTP 1 AND KPER 2

 SFR-1 SETTING BUDGET TERMS FOR KSTP 1784 AND KPER 2 TO BUDGET FILE TERMS FROM KSTP 1 AND KPER 2

end timestep


start timestep kper="2" kstp="1785" mode="normal"


 FMI SETTING BUDGET TERMS FOR KSTP 1785 AND KPER 2 TO BUDGET FILE TERMS FROM KSTP 1 AND KPER 2

 FMI SETTING HEAD FOR KSTP 1785 AND KPER 2 TO BINARY FILE HEADS FROM KSTP 1 AND KPER 2

 SFR-1 SETTING BUDGET TERMS FOR KSTP 1785 AND KPER 2 TO BUDGET FILE TERMS FROM KSTP 1 AND KPER 2

end timestep


start timestep kper="2" kstp="1786" mode="normal"


 FMI SETTING BUDGET TERMS FOR KSTP 1786 AND KPER 2 TO BUDGET FILE TERMS FROM KSTP 1 AND KPER 2

 FMI SETTING HEAD FOR KSTP 1786 AND KPER 2 TO BINARY FILE HEADS FROM KSTP 1 AND KPER 2

 SFR-1 SETTING BUDGET TERMS FOR KSTP 1786 AND KPER 2 TO BUDGET FILE TERMS FROM KSTP 1 AND KPER 2

end timestep


start timestep kper="2" kstp="1787" mode="normal"


 FMI SETTING BUDGET TERMS FOR KSTP 1787 AND KPER 2 TO BUDGET FILE TERMS FROM KSTP 1 AND KPER 2

 FMI SETTING HEAD FOR KSTP 1787 AND KPER 2 TO BINARY FILE HEADS FROM KSTP 1 AND KPER 2

 SFR-1 SETTING BUDGET TERMS FOR KSTP 1787 AND KPER 2 TO BUDGET FILE TERMS FROM KSTP 1 AND KPER 2

end timestep


start timestep kper="2" kstp="1788" mode="normal"


 FMI SETTING BUDGET TERMS FOR KSTP 1788 AND KPER 2 TO BUDGET FILE TERMS FROM KSTP 1 AND KPER 2

 FMI SETTING HEAD FOR KSTP 1788 AND KPER 2 TO BINARY FILE HEADS FROM KSTP 1 AND KPER 2

 SFR-1 SETTING BUDGET TERMS FOR KSTP 1788 AND KPER 2 TO BUDGET FILE TERMS FROM KSTP 1 AND KPER 2

end timestep


start timestep kper="2" kstp="1789" mode="normal"


 FMI SETTING BUDGET TERMS FOR KSTP 1789 AND KPER 2 TO BUDGET FILE TERMS FROM KSTP 1 AND KPER 2

 FMI SETTING HEAD FOR KSTP 1789 AND KPER 2 TO BINARY FILE HEADS FROM KSTP 1 AND KPER 2

 SFR-1 SETTING BUDGET TERMS FOR KSTP 1789 AND KPER 2 TO BUDGET FILE TERMS FROM KSTP 1 AND KPER 2

end timestep


start timestep kper="2" kstp="1790" mode="normal"


 FMI SETTING BUDGET TERMS FOR KSTP 1790 AND KPER 2 TO BUDGET FILE TERMS FROM KSTP 1 AND KPER 2

 FMI SETTING HEAD FOR KSTP 1790 AND KPER 2 TO BINARY FILE HEADS FROM KSTP 1 AND KPER 2

 SFR-1 SETTING BUDGET TERMS FOR KSTP 1790 AND KPER 2 TO BUDGET FILE TERMS FROM KSTP 1 AND KPER 2

 CONCENTRATION WILL BE SAVED ON UNIT 1024 AT END OF TIME STEP 1790, STRESS PERIOD    2

end timestep


start timestep kper="2" kstp="1791" mode="normal"


 FMI SETTING BUDGET TERMS FOR KSTP 1791 AND KPER 2 TO BUDGET FILE TERMS FROM KSTP 1 AND KPER 2

 FMI SETTING HEAD FOR KSTP 1791 AND KPER 2 TO BINARY FILE HEADS FROM KSTP 1 AND KPER 2

 SFR-1 SETTING BUDGET TERMS FOR KSTP 1791 AND KPER 2 TO BUDGET FILE TERMS FROM KSTP 1 AND KPER 2

end timestep


start timestep kper="2" kstp="1792" mode="normal"


 FMI SETTING BUDGET TERMS FOR KSTP 1792 AND KPER 2 TO BUDGET FILE TERMS FROM KSTP 1 AND KPER 2

 FMI SETTING HEAD FOR KSTP 1792 AND KPER 2 TO BINARY FILE HEADS FROM KSTP 1 AND KPER 2

 SFR-1 SETTING BUDGET TERMS FOR KSTP 1792 AND KPER 2 TO BUDGET FILE TERMS FROM KSTP 1 AND KPER 2

end timestep


start timestep kper="2" kstp="1793" mode="normal"


 FMI SETTING BUDGET TERMS FOR KSTP 1793 AND KPER 2 TO BUDGET FILE TERMS FROM KSTP 1 AND KPER 2

 FMI SETTING HEAD FOR KSTP 1793 AND KPER 2 TO BINARY FILE HEADS FROM KSTP 1 AND KPER 2

 SFR-1 SETTING BUDGET TERMS FOR KSTP 1793 AND KPER 2 TO BUDGET FILE TERMS FROM KSTP 1 AND KPER 2

end timestep


start timestep kper="2" kstp="1794" mode="normal"


 FMI SETTING BUDGET TERMS FOR KSTP 1794 AND KPER 2 TO BUDGET FILE TERMS FROM KSTP 1 AND KPER 2

 FMI SETTING HEAD FOR KSTP 1794 AND KPER 2 TO BINARY FILE HEADS FROM KSTP 1 AND KPER 2

 SFR-1 SETTING BUDGET TERMS FOR KSTP 1794 AND KPER 2 TO BUDGET FILE TERMS FROM KSTP 1 AND KPER 2

end timestep


start timestep kper="2" kstp="1795" mode="normal"


 FMI SETTING BUDGET TERMS FOR KSTP 1795 AND KPER 2 TO BUDGET FILE TERMS FROM KSTP 1 AND KPER 2

 FMI SETTING HEAD FOR KSTP 1795 AND KPER 2 TO BINARY FILE HEADS FROM KSTP 1 AND KPER 2

 SFR-1 SETTING BUDGET TERMS FOR KSTP 1795 AND KPER 2 TO BUDGET FILE TERMS FROM KSTP 1 AND KPER 2

end timestep


start timestep kper="2" kstp="1796" mode="normal"


 FMI SETTING BUDGET TERMS FOR KSTP 1796 AND KPER 2 TO BUDGET FILE TERMS FROM KSTP 1 AND KPER 2

 FMI SETTING HEAD FOR KSTP 1796 AND KPER 2 TO BINARY FILE HEADS FROM KSTP 1 AND KPER 2

 SFR-1 SETTING BUDGET TERMS FOR KSTP 1796 AND KPER 2 TO BUDGET FILE TERMS FROM KSTP 1 AND KPER 2

end timestep


start timestep kper="2" kstp="1797" mode="normal"


 FMI SETTING BUDGET TERMS FOR KSTP 1797 AND KPER 2 TO BUDGET FILE TERMS FROM KSTP 1 AND KPER 2

 FMI SETTING HEAD FOR KSTP 1797 AND KPER 2 TO BINARY FILE HEADS FROM KSTP 1 AND KPER 2

 SFR-1 SETTING BUDGET TERMS FOR KSTP 1797 AND KPER 2 TO BUDGET FILE TERMS FROM KSTP 1 AND KPER 2

end timestep


start timestep kper="2" kstp="1798" mode="normal"


 FMI SETTING BUDGET TERMS FOR KSTP 1798 AND KPER 2 TO BUDGET FILE TERMS FROM KSTP 1 AND KPER 2

 FMI SETTING HEAD FOR KSTP 1798 AND KPER 2 TO BINARY FILE HEADS FROM KSTP 1 AND KPER 2

 SFR-1 SETTING BUDGET TERMS FOR KSTP 1798 AND KPER 2 TO BUDGET FILE TERMS FROM KSTP 1 AND KPER 2

end timestep


start timestep kper="2" kstp="1799" mode="normal"


 FMI SETTING BUDGET TERMS FOR KSTP 1799 AND KPER 2 TO BUDGET FILE TERMS FROM KSTP 1 AND KPER 2

 FMI SETTING HEAD FOR KSTP 1799 AND KPER 2 TO BINARY FILE HEADS FROM KSTP 1 AND KPER 2

 SFR-1 SETTING BUDGET TERMS FOR KSTP 1799 AND KPER 2 TO BUDGET FILE TERMS FROM KSTP 1 AND KPER 2

end timestep


start timestep kper="2" kstp="1800" mode="normal"


 FMI SETTING BUDGET TERMS FOR KSTP 1800 AND KPER 2 TO BUDGET FILE TERMS FROM KSTP 1 AND KPER 2

 FMI SETTING HEAD FOR KSTP 1800 AND KPER 2 TO BINARY FILE HEADS FROM KSTP 1 AND KPER 2

 SFR-1 SETTING BUDGET TERMS FOR KSTP 1800 AND KPER 2 TO BUDGET FILE TERMS FROM KSTP 1 AND KPER 2

 CONCENTRATION WILL BE SAVED ON UNIT 1024 AT END OF TIME STEP 1800, STRESS PERIOD    2

end timestep


start timestep kper="2" kstp="1801" mode="normal"


 FMI SETTING BUDGET TERMS FOR KSTP 1801 AND KPER 2 TO BUDGET FILE TERMS FROM KSTP 1 AND KPER 2

 FMI SETTING HEAD FOR KSTP 1801 AND KPER 2 TO BINARY FILE HEADS FROM KSTP 1 AND KPER 2

 SFR-1 SETTING BUDGET TERMS FOR KSTP 1801 AND KPER 2 TO BUDGET FILE TERMS FROM KSTP 1 AND KPER 2

end timestep


start timestep kper="2" kstp="1802" mode="normal"


 FMI SETTING BUDGET TERMS FOR KSTP 1802 AND KPER 2 TO BUDGET FILE TERMS FROM KSTP 1 AND KPER 2

 FMI SETTING HEAD FOR KSTP 1802 AND KPER 2 TO BINARY FILE HEADS FROM KSTP 1 AND KPER 2

 SFR-1 SETTING BUDGET TERMS FOR KSTP 1802 AND KPER 2 TO BUDGET FILE TERMS FROM KSTP 1 AND KPER 2

end timestep


start timestep kper="2" kstp="1803" mode="normal"


 FMI SETTING BUDGET TERMS FOR KSTP 1803 AND KPER 2 TO BUDGET FILE TERMS FROM KSTP 1 AND KPER 2

 FMI SETTING HEAD FOR KSTP 1803 AND KPER 2 TO BINARY FILE HEADS FROM KSTP 1 AND KPER 2

 SFR-1 SETTING BUDGET TERMS FOR KSTP 1803 AND KPER 2 TO BUDGET FILE TERMS FROM KSTP 1 AND KPER 2

end timestep


start timestep kper="2" kstp="1804" mode="normal"


 FMI SETTING BUDGET TERMS FOR KSTP 1804 AND KPER 2 TO BUDGET FILE TERMS FROM KSTP 1 AND KPER 2

 FMI SETTING HEAD FOR KSTP 1804 AND KPER 2 TO BINARY FILE HEADS FROM KSTP 1 AND KPER 2

 SFR-1 SETTING BUDGET TERMS FOR KSTP 1804 AND KPER 2 TO BUDGET FILE TERMS FROM KSTP 1 AND KPER 2

end timestep


start timestep kper="2" kstp="1805" mode="normal"


 FMI SETTING BUDGET TERMS FOR KSTP 1805 AND KPER 2 TO BUDGET FILE TERMS FROM KSTP 1 AND KPER 2

 FMI SETTING HEAD FOR KSTP 1805 AND KPER 2 TO BINARY FILE HEADS FROM KSTP 1 AND KPER 2

 SFR-1 SETTING BUDGET TERMS FOR KSTP 1805 AND KPER 2 TO BUDGET FILE TERMS FROM KSTP 1 AND KPER 2

end timestep


start timestep kper="2" kstp="1806" mode="normal"


 FMI SETTING BUDGET TERMS FOR KSTP 1806 AND KPER 2 TO BUDGET FILE TERMS FROM KSTP 1 AND KPER 2

 FMI SETTING HEAD FOR KSTP 1806 AND KPER 2 TO BINARY FILE HEADS FROM KSTP 1 AND KPER 2

 SFR-1 SETTING BUDGET TERMS FOR KSTP 1806 AND KPER 2 TO BUDGET FILE TERMS FROM KSTP 1 AND KPER 2

end timestep


start timestep kper="2" kstp="1807" mode="normal"


 FMI SETTING BUDGET TERMS FOR KSTP 1807 AND KPER 2 TO BUDGET FILE TERMS FROM KSTP 1 AND KPER 2

 FMI SETTING HEAD FOR KSTP 1807 AND KPER 2 TO BINARY FILE HEADS FROM KSTP 1 AND KPER 2

 SFR-1 SETTING BUDGET TERMS FOR KSTP 1807 AND KPER 2 TO BUDGET FILE TERMS FROM KSTP 1 AND KPER 2

end timestep


start timestep kper="2" kstp="1808" mode="normal"


 FMI SETTING BUDGET TERMS FOR KSTP 1808 AND KPER 2 TO BUDGET FILE TERMS FROM KSTP 1 AND KPER 2

 FMI SETTING HEAD FOR KSTP 1808 AND KPER 2 TO BINARY FILE HEADS FROM KSTP 1 AND KPER 2

 SFR-1 SETTING BUDGET TERMS FOR KSTP 1808 AND KPER 2 TO BUDGET FILE TERMS FROM KSTP 1 AND KPER 2

end timestep


start timestep kper="2" kstp="1809" mode="normal"


 FMI SETTING BUDGET TERMS FOR KSTP 1809 AND KPER 2 TO BUDGET FILE TERMS FROM KSTP 1 AND KPER 2

 FMI SETTING HEAD FOR KSTP 1809 AND KPER 2 TO BINARY FILE HEADS FROM KSTP 1 AND KPER 2

 SFR-1 SETTING BUDGET TERMS FOR KSTP 1809 AND KPER 2 TO BUDGET FILE TERMS FROM KSTP 1 AND KPER 2

end timestep


start timestep kper="2" kstp="1810" mode="normal"


 FMI SETTING BUDGET TERMS FOR KSTP 1810 AND KPER 2 TO BUDGET FILE TERMS FROM KSTP 1 AND KPER 2

 FMI SETTING HEAD FOR KSTP 1810 AND KPER 2 TO BINARY FILE HEADS FROM KSTP 1 AND KPER 2

 SFR-1 SETTING BUDGET TERMS FOR KSTP 1810 AND KPER 2 TO BUDGET FILE TERMS FROM KSTP 1 AND KPER 2

 CONCENTRATION WILL BE SAVED ON UNIT 1024 AT END OF TIME STEP 1810, STRESS PERIOD    2

end timestep


start timestep kper="2" kstp="1811" mode="normal"


 FMI SETTING BUDGET TERMS FOR KSTP 1811 AND KPER 2 TO BUDGET FILE TERMS FROM KSTP 1 AND KPER 2

 FMI SETTING HEAD FOR KSTP 1811 AND KPER 2 TO BINARY FILE HEADS FROM KSTP 1 AND KPER 2

 SFR-1 SETTING BUDGET TERMS FOR KSTP 1811 AND KPER 2 TO BUDGET FILE TERMS FROM KSTP 1 AND KPER 2

end timestep


start timestep kper="2" kstp="1812" mode="normal"


 FMI SETTING BUDGET TERMS FOR KSTP 1812 AND KPER 2 TO BUDGET FILE TERMS FROM KSTP 1 AND KPER 2

 FMI SETTING HEAD FOR KSTP 1812 AND KPER 2 TO BINARY FILE HEADS FROM KSTP 1 AND KPER 2

 SFR-1 SETTING BUDGET TERMS FOR KSTP 1812 AND KPER 2 TO BUDGET FILE TERMS FROM KSTP 1 AND KPER 2

end timestep


start timestep kper="2" kstp="1813" mode="normal"


 FMI SETTING BUDGET TERMS FOR KSTP 1813 AND KPER 2 TO BUDGET FILE TERMS FROM KSTP 1 AND KPER 2

 FMI SETTING HEAD FOR KSTP 1813 AND KPER 2 TO BINARY FILE HEADS FROM KSTP 1 AND KPER 2

 SFR-1 SETTING BUDGET TERMS FOR KSTP 1813 AND KPER 2 TO BUDGET FILE TERMS FROM KSTP 1 AND KPER 2

end timestep


start timestep kper="2" kstp="1814" mode="normal"


 FMI SETTING BUDGET TERMS FOR KSTP 1814 AND KPER 2 TO BUDGET FILE TERMS FROM KSTP 1 AND KPER 2

 FMI SETTING HEAD FOR KSTP 1814 AND KPER 2 TO BINARY FILE HEADS FROM KSTP 1 AND KPER 2

 SFR-1 SETTING BUDGET TERMS FOR KSTP 1814 AND KPER 2 TO BUDGET FILE TERMS FROM KSTP 1 AND KPER 2

end timestep


start timestep kper="2" kstp="1815" mode="normal"


 FMI SETTING BUDGET TERMS FOR KSTP 1815 AND KPER 2 TO BUDGET FILE TERMS FROM KSTP 1 AND KPER 2

 FMI SETTING HEAD FOR KSTP 1815 AND KPER 2 TO BINARY FILE HEADS FROM KSTP 1 AND KPER 2

 SFR-1 SETTING BUDGET TERMS FOR KSTP 1815 AND KPER 2 TO BUDGET FILE TERMS FROM KSTP 1 AND KPER 2

end timestep


start timestep kper="2" kstp="1816" mode="normal"


 FMI SETTING BUDGET TERMS FOR KSTP 1816 AND KPER 2 TO BUDGET FILE TERMS FROM KSTP 1 AND KPER 2

 FMI SETTING HEAD FOR KSTP 1816 AND KPER 2 TO BINARY FILE HEADS FROM KSTP 1 AND KPER 2

 SFR-1 SETTING BUDGET TERMS FOR KSTP 1816 AND KPER 2 TO BUDGET FILE TERMS FROM KSTP 1 AND KPER 2

end timestep


start timestep kper="2" kstp="1817" mode="normal"


 FMI SETTING BUDGET TERMS FOR KSTP 1817 AND KPER 2 TO BUDGET FILE TERMS FROM KSTP 1 AND KPER 2

 FMI SETTING HEAD FOR KSTP 1817 AND KPER 2 TO BINARY FILE HEADS FROM KSTP 1 AND KPER 2

 SFR-1 SETTING BUDGET TERMS FOR KSTP 1817 AND KPER 2 TO BUDGET FILE TERMS FROM KSTP 1 AND KPER 2

end timestep


start timestep kper="2" kstp="1818" mode="normal"


 FMI SETTING BUDGET TERMS FOR KSTP 1818 AND KPER 2 TO BUDGET FILE TERMS FROM KSTP 1 AND KPER 2

 FMI SETTING HEAD FOR KSTP 1818 AND KPER 2 TO BINARY FILE HEADS FROM KSTP 1 AND KPER 2

 SFR-1 SETTING BUDGET TERMS FOR KSTP 1818 AND KPER 2 TO BUDGET FILE TERMS FROM KSTP 1 AND KPER 2

end timestep


start timestep kper="2" kstp="1819" mode="normal"


 FMI SETTING BUDGET TERMS FOR KSTP 1819 AND KPER 2 TO BUDGET FILE TERMS FROM KSTP 1 AND KPER 2

 FMI SETTING HEAD FOR KSTP 1819 AND KPER 2 TO BINARY FILE HEADS FROM KSTP 1 AND KPER 2

 SFR-1 SETTING BUDGET TERMS FOR KSTP 1819 AND KPER 2 TO BUDGET FILE TERMS FROM KSTP 1 AND KPER 2

end timestep


start timestep kper="2" kstp="1820" mode="normal"


 FMI SETTING BUDGET TERMS FOR KSTP 1820 AND KPER 2 TO BUDGET FILE TERMS FROM KSTP 1 AND KPER 2

 FMI SETTING HEAD FOR KSTP 1820 AND KPER 2 TO BINARY FILE HEADS FROM KSTP 1 AND KPER 2

 SFR-1 SETTING BUDGET TERMS FOR KSTP 1820 AND KPER 2 TO BUDGET FILE TERMS FROM KSTP 1 AND KPER 2

 CONCENTRATION WILL BE SAVED ON UNIT 1024 AT END OF TIME STEP 1820, STRESS PERIOD    2

end timestep


start timestep kper="2" kstp="1821" mode="normal"


 FMI SETTING BUDGET TERMS FOR KSTP 1821 AND KPER 2 TO BUDGET FILE TERMS FROM KSTP 1 AND KPER 2

 FMI SETTING HEAD FOR KSTP 1821 AND KPER 2 TO BINARY FILE HEADS FROM KSTP 1 AND KPER 2

 SFR-1 SETTING BUDGET TERMS FOR KSTP 1821 AND KPER 2 TO BUDGET FILE TERMS FROM KSTP 1 AND KPER 2

end timestep


start timestep kper="2" kstp="1822" mode="normal"


 FMI SETTING BUDGET TERMS FOR KSTP 1822 AND KPER 2 TO BUDGET FILE TERMS FROM KSTP 1 AND KPER 2

 FMI SETTING HEAD FOR KSTP 1822 AND KPER 2 TO BINARY FILE HEADS FROM KSTP 1 AND KPER 2

 SFR-1 SETTING BUDGET TERMS FOR KSTP 1822 AND KPER 2 TO BUDGET FILE TERMS FROM KSTP 1 AND KPER 2

end timestep


start timestep kper="2" kstp="1823" mode="normal"


 FMI SETTING BUDGET TERMS FOR KSTP 1823 AND KPER 2 TO BUDGET FILE TERMS FROM KSTP 1 AND KPER 2

 FMI SETTING HEAD FOR KSTP 1823 AND KPER 2 TO BINARY FILE HEADS FROM KSTP 1 AND KPER 2

 SFR-1 SETTING BUDGET TERMS FOR KSTP 1823 AND KPER 2 TO BUDGET FILE TERMS FROM KSTP 1 AND KPER 2

end timestep


start timestep kper="2" kstp="1824" mode="normal"


 FMI SETTING BUDGET TERMS FOR KSTP 1824 AND KPER 2 TO BUDGET FILE TERMS FROM KSTP 1 AND KPER 2

 FMI SETTING HEAD FOR KSTP 1824 AND KPER 2 TO BINARY FILE HEADS FROM KSTP 1 AND KPER 2

 SFR-1 SETTING BUDGET TERMS FOR KSTP 1824 AND KPER 2 TO BUDGET FILE TERMS FROM KSTP 1 AND KPER 2

end timestep


start timestep kper="2" kstp="1825" mode="normal"


 FMI SETTING BUDGET TERMS FOR KSTP 1825 AND KPER 2 TO BUDGET FILE TERMS FROM KSTP 1 AND KPER 2

 FMI SETTING HEAD FOR KSTP 1825 AND KPER 2 TO BINARY FILE HEADS FROM KSTP 1 AND KPER 2

 SFR-1 SETTING BUDGET TERMS FOR KSTP 1825 AND KPER 2 TO BUDGET FILE TERMS FROM KSTP 1 AND KPER 2

end timestep


start timestep kper="2" kstp="1826" mode="normal"


 FMI SETTING BUDGET TERMS FOR KSTP 1826 AND KPER 2 TO BUDGET FILE TERMS FROM KSTP 1 AND KPER 2

 FMI SETTING HEAD FOR KSTP 1826 AND KPER 2 TO BINARY FILE HEADS FROM KSTP 1 AND KPER 2

 SFR-1 SETTING BUDGET TERMS FOR KSTP 1826 AND KPER 2 TO BUDGET FILE TERMS FROM KSTP 1 AND KPER 2

end timestep


start timestep kper="2" kstp="1827" mode="normal"


 FMI SETTING BUDGET TERMS FOR KSTP 1827 AND KPER 2 TO BUDGET FILE TERMS FROM KSTP 1 AND KPER 2

 FMI SETTING HEAD FOR KSTP 1827 AND KPER 2 TO BINARY FILE HEADS FROM KSTP 1 AND KPER 2

 SFR-1 SETTING BUDGET TERMS FOR KSTP 1827 AND KPER 2 TO BUDGET FILE TERMS FROM KSTP 1 AND KPER 2

end timestep


start timestep kper="2" kstp="1828" mode="normal"


 FMI SETTING BUDGET TERMS FOR KSTP 1828 AND KPER 2 TO BUDGET FILE TERMS FROM KSTP 1 AND KPER 2

 FMI SETTING HEAD FOR KSTP 1828 AND KPER 2 TO BINARY FILE HEADS FROM KSTP 1 AND KPER 2

 SFR-1 SETTING BUDGET TERMS FOR KSTP 1828 AND KPER 2 TO BUDGET FILE TERMS FROM KSTP 1 AND KPER 2

end timestep


start timestep kper="2" kstp="1829" mode="normal"


 FMI SETTING BUDGET TERMS FOR KSTP 1829 AND KPER 2 TO BUDGET FILE TERMS FROM KSTP 1 AND KPER 2

 FMI SETTING HEAD FOR KSTP 1829 AND KPER 2 TO BINARY FILE HEADS FROM KSTP 1 AND KPER 2

 SFR-1 SETTING BUDGET TERMS FOR KSTP 1829 AND KPER 2 TO BUDGET FILE TERMS FROM KSTP 1 AND KPER 2

end timestep


start timestep kper="2" kstp="1830" mode="normal"


 FMI SETTING BUDGET TERMS FOR KSTP 1830 AND KPER 2 TO BUDGET FILE TERMS FROM KSTP 1 AND KPER 2

 FMI SETTING HEAD FOR KSTP 1830 AND KPER 2 TO BINARY FILE HEADS FROM KSTP 1 AND KPER 2

 SFR-1 SETTING BUDGET TERMS FOR KSTP 1830 AND KPER 2 TO BUDGET FILE TERMS FROM KSTP 1 AND KPER 2

 CONCENTRATION WILL BE SAVED ON UNIT 1024 AT END OF TIME STEP 1830, STRESS PERIOD    2

end timestep


start timestep kper="2" kstp="1831" mode="normal"


 FMI SETTING BUDGET TERMS FOR KSTP 1831 AND KPER 2 TO BUDGET FILE TERMS FROM KSTP 1 AND KPER 2

 FMI SETTING HEAD FOR KSTP 1831 AND KPER 2 TO BINARY FILE HEADS FROM KSTP 1 AND KPER 2

 SFR-1 SETTING BUDGET TERMS FOR KSTP 1831 AND KPER 2 TO BUDGET FILE TERMS FROM KSTP 1 AND KPER 2

end timestep


start timestep kper="2" kstp="1832" mode="normal"


 FMI SETTING BUDGET TERMS FOR KSTP 1832 AND KPER 2 TO BUDGET FILE TERMS FROM KSTP 1 AND KPER 2

 FMI SETTING HEAD FOR KSTP 1832 AND KPER 2 TO BINARY FILE HEADS FROM KSTP 1 AND KPER 2

 SFR-1 SETTING BUDGET TERMS FOR KSTP 1832 AND KPER 2 TO BUDGET FILE TERMS FROM KSTP 1 AND KPER 2

end timestep


start timestep kper="2" kstp="1833" mode="normal"


 FMI SETTING BUDGET TERMS FOR KSTP 1833 AND KPER 2 TO BUDGET FILE TERMS FROM KSTP 1 AND KPER 2

 FMI SETTING HEAD FOR KSTP 1833 AND KPER 2 TO BINARY FILE HEADS FROM KSTP 1 AND KPER 2

 SFR-1 SETTING BUDGET TERMS FOR KSTP 1833 AND KPER 2 TO BUDGET FILE TERMS FROM KSTP 1 AND KPER 2

end timestep


start timestep kper="2" kstp="1834" mode="normal"


 FMI SETTING BUDGET TERMS FOR KSTP 1834 AND KPER 2 TO BUDGET FILE TERMS FROM KSTP 1 AND KPER 2

 FMI SETTING HEAD FOR KSTP 1834 AND KPER 2 TO BINARY FILE HEADS FROM KSTP 1 AND KPER 2

 SFR-1 SETTING BUDGET TERMS FOR KSTP 1834 AND KPER 2 TO BUDGET FILE TERMS FROM KSTP 1 AND KPER 2

end timestep


start timestep kper="2" kstp="1835" mode="normal"


 FMI SETTING BUDGET TERMS FOR KSTP 1835 AND KPER 2 TO BUDGET FILE TERMS FROM KSTP 1 AND KPER 2

 FMI SETTING HEAD FOR KSTP 1835 AND KPER 2 TO BINARY FILE HEADS FROM KSTP 1 AND KPER 2

 SFR-1 SETTING BUDGET TERMS FOR KSTP 1835 AND KPER 2 TO BUDGET FILE TERMS FROM KSTP 1 AND KPER 2

end timestep


start timestep kper="2" kstp="1836" mode="normal"


 FMI SETTING BUDGET TERMS FOR KSTP 1836 AND KPER 2 TO BUDGET FILE TERMS FROM KSTP 1 AND KPER 2

 FMI SETTING HEAD FOR KSTP 1836 AND KPER 2 TO BINARY FILE HEADS FROM KSTP 1 AND KPER 2

 SFR-1 SETTING BUDGET TERMS FOR KSTP 1836 AND KPER 2 TO BUDGET FILE TERMS FROM KSTP 1 AND KPER 2

end timestep


start timestep kper="2" kstp="1837" mode="normal"


 FMI SETTING BUDGET TERMS FOR KSTP 1837 AND KPER 2 TO BUDGET FILE TERMS FROM KSTP 1 AND KPER 2

 FMI SETTING HEAD FOR KSTP 1837 AND KPER 2 TO BINARY FILE HEADS FROM KSTP 1 AND KPER 2

 SFR-1 SETTING BUDGET TERMS FOR KSTP 1837 AND KPER 2 TO BUDGET FILE TERMS FROM KSTP 1 AND KPER 2

end timestep


start timestep kper="2" kstp="1838" mode="normal"


 FMI SETTING BUDGET TERMS FOR KSTP 1838 AND KPER 2 TO BUDGET FILE TERMS FROM KSTP 1 AND KPER 2

 FMI SETTING HEAD FOR KSTP 1838 AND KPER 2 TO BINARY FILE HEADS FROM KSTP 1 AND KPER 2

 SFR-1 SETTING BUDGET TERMS FOR KSTP 1838 AND KPER 2 TO BUDGET FILE TERMS FROM KSTP 1 AND KPER 2

end timestep


start timestep kper="2" kstp="1839" mode="normal"


 FMI SETTING BUDGET TERMS FOR KSTP 1839 AND KPER 2 TO BUDGET FILE TERMS FROM KSTP 1 AND KPER 2

 FMI SETTING HEAD FOR KSTP 1839 AND KPER 2 TO BINARY FILE HEADS FROM KSTP 1 AND KPER 2

 SFR-1 SETTING BUDGET TERMS FOR KSTP 1839 AND KPER 2 TO BUDGET FILE TERMS FROM KSTP 1 AND KPER 2

end timestep


start timestep kper="2" kstp="1840" mode="normal"


 FMI SETTING BUDGET TERMS FOR KSTP 1840 AND KPER 2 TO BUDGET FILE TERMS FROM KSTP 1 AND KPER 2

 FMI SETTING HEAD FOR KSTP 1840 AND KPER 2 TO BINARY FILE HEADS FROM KSTP 1 AND KPER 2

 SFR-1 SETTING BUDGET TERMS FOR KSTP 1840 AND KPER 2 TO BUDGET FILE TERMS FROM KSTP 1 AND KPER 2

 CONCENTRATION WILL BE SAVED ON UNIT 1024 AT END OF TIME STEP 1840, STRESS PERIOD    2

end timestep


start timestep kper="2" kstp="1841" mode="normal"


 FMI SETTING BUDGET TERMS FOR KSTP 1841 AND KPER 2 TO BUDGET FILE TERMS FROM KSTP 1 AND KPER 2

 FMI SETTING HEAD FOR KSTP 1841 AND KPER 2 TO BINARY FILE HEADS FROM KSTP 1 AND KPER 2

 SFR-1 SETTING BUDGET TERMS FOR KSTP 1841 AND KPER 2 TO BUDGET FILE TERMS FROM KSTP 1 AND KPER 2

end timestep


start timestep kper="2" kstp="1842" mode="normal"


 FMI SETTING BUDGET TERMS FOR KSTP 1842 AND KPER 2 TO BUDGET FILE TERMS FROM KSTP 1 AND KPER 2

 FMI SETTING HEAD FOR KSTP 1842 AND KPER 2 TO BINARY FILE HEADS FROM KSTP 1 AND KPER 2

 SFR-1 SETTING BUDGET TERMS FOR KSTP 1842 AND KPER 2 TO BUDGET FILE TERMS FROM KSTP 1 AND KPER 2

end timestep


start timestep kper="2" kstp="1843" mode="normal"


 FMI SETTING BUDGET TERMS FOR KSTP 1843 AND KPER 2 TO BUDGET FILE TERMS FROM KSTP 1 AND KPER 2

 FMI SETTING HEAD FOR KSTP 1843 AND KPER 2 TO BINARY FILE HEADS FROM KSTP 1 AND KPER 2

 SFR-1 SETTING BUDGET TERMS FOR KSTP 1843 AND KPER 2 TO BUDGET FILE TERMS FROM KSTP 1 AND KPER 2

end timestep


start timestep kper="2" kstp="1844" mode="normal"


 FMI SETTING BUDGET TERMS FOR KSTP 1844 AND KPER 2 TO BUDGET FILE TERMS FROM KSTP 1 AND KPER 2

 FMI SETTING HEAD FOR KSTP 1844 AND KPER 2 TO BINARY FILE HEADS FROM KSTP 1 AND KPER 2

 SFR-1 SETTING BUDGET TERMS FOR KSTP 1844 AND KPER 2 TO BUDGET FILE TERMS FROM KSTP 1 AND KPER 2

end timestep


start timestep kper="2" kstp="1845" mode="normal"


 FMI SETTING BUDGET TERMS FOR KSTP 1845 AND KPER 2 TO BUDGET FILE TERMS FROM KSTP 1 AND KPER 2

 FMI SETTING HEAD FOR KSTP 1845 AND KPER 2 TO BINARY FILE HEADS FROM KSTP 1 AND KPER 2

 SFR-1 SETTING BUDGET TERMS FOR KSTP 1845 AND KPER 2 TO BUDGET FILE TERMS FROM KSTP 1 AND KPER 2

end timestep


start timestep kper="2" kstp="1846" mode="normal"


 FMI SETTING BUDGET TERMS FOR KSTP 1846 AND KPER 2 TO BUDGET FILE TERMS FROM KSTP 1 AND KPER 2

 FMI SETTING HEAD FOR KSTP 1846 AND KPER 2 TO BINARY FILE HEADS FROM KSTP 1 AND KPER 2

 SFR-1 SETTING BUDGET TERMS FOR KSTP 1846 AND KPER 2 TO BUDGET FILE TERMS FROM KSTP 1 AND KPER 2

end timestep


start timestep kper="2" kstp="1847" mode="normal"


 FMI SETTING BUDGET TERMS FOR KSTP 1847 AND KPER 2 TO BUDGET FILE TERMS FROM KSTP 1 AND KPER 2

 FMI SETTING HEAD FOR KSTP 1847 AND KPER 2 TO BINARY FILE HEADS FROM KSTP 1 AND KPER 2

 SFR-1 SETTING BUDGET TERMS FOR KSTP 1847 AND KPER 2 TO BUDGET FILE TERMS FROM KSTP 1 AND KPER 2

end timestep


start timestep kper="2" kstp="1848" mode="normal"


 FMI SETTING BUDGET TERMS FOR KSTP 1848 AND KPER 2 TO BUDGET FILE TERMS FROM KSTP 1 AND KPER 2

 FMI SETTING HEAD FOR KSTP 1848 AND KPER 2 TO BINARY FILE HEADS FROM KSTP 1 AND KPER 2

 SFR-1 SETTING BUDGET TERMS FOR KSTP 1848 AND KPER 2 TO BUDGET FILE TERMS FROM KSTP 1 AND KPER 2

end timestep


start timestep kper="2" kstp="1849" mode="normal"


 FMI SETTING BUDGET TERMS FOR KSTP 1849 AND KPER 2 TO BUDGET FILE TERMS FROM KSTP 1 AND KPER 2

 FMI SETTING HEAD FOR KSTP 1849 AND KPER 2 TO BINARY FILE HEADS FROM KSTP 1 AND KPER 2

 SFR-1 SETTING BUDGET TERMS FOR KSTP 1849 AND KPER 2 TO BUDGET FILE TERMS FROM KSTP 1 AND KPER 2

end timestep


start timestep kper="2" kstp="1850" mode="normal"


 FMI SETTING BUDGET TERMS FOR KSTP 1850 AND KPER 2 TO BUDGET FILE TERMS FROM KSTP 1 AND KPER 2

 FMI SETTING HEAD FOR KSTP 1850 AND KPER 2 TO BINARY FILE HEADS FROM KSTP 1 AND KPER 2

 SFR-1 SETTING BUDGET TERMS FOR KSTP 1850 AND KPER 2 TO BUDGET FILE TERMS FROM KSTP 1 AND KPER 2

 CONCENTRATION WILL BE SAVED ON UNIT 1024 AT END OF TIME STEP 1850, STRESS PERIOD    2

end timestep


start timestep kper="2" kstp="1851" mode="normal"


 FMI SETTING BUDGET TERMS FOR KSTP 1851 AND KPER 2 TO BUDGET FILE TERMS FROM KSTP 1 AND KPER 2

 FMI SETTING HEAD FOR KSTP 1851 AND KPER 2 TO BINARY FILE HEADS FROM KSTP 1 AND KPER 2

 SFR-1 SETTING BUDGET TERMS FOR KSTP 1851 AND KPER 2 TO BUDGET FILE TERMS FROM KSTP 1 AND KPER 2

end timestep


start timestep kper="2" kstp="1852" mode="normal"


 FMI SETTING BUDGET TERMS FOR KSTP 1852 AND KPER 2 TO BUDGET FILE TERMS FROM KSTP 1 AND KPER 2

 FMI SETTING HEAD FOR KSTP 1852 AND KPER 2 TO BINARY FILE HEADS FROM KSTP 1 AND KPER 2

 SFR-1 SETTING BUDGET TERMS FOR KSTP 1852 AND KPER 2 TO BUDGET FILE TERMS FROM KSTP 1 AND KPER 2

end timestep


start timestep kper="2" kstp="1853" mode="normal"


 FMI SETTING BUDGET TERMS FOR KSTP 1853 AND KPER 2 TO BUDGET FILE TERMS FROM KSTP 1 AND KPER 2

 FMI SETTING HEAD FOR KSTP 1853 AND KPER 2 TO BINARY FILE HEADS FROM KSTP 1 AND KPER 2

 SFR-1 SETTING BUDGET TERMS FOR KSTP 1853 AND KPER 2 TO BUDGET FILE TERMS FROM KSTP 1 AND KPER 2

end timestep


start timestep kper="2" kstp="1854" mode="normal"


 FMI SETTING BUDGET TERMS FOR KSTP 1854 AND KPER 2 TO BUDGET FILE TERMS FROM KSTP 1 AND KPER 2

 FMI SETTING HEAD FOR KSTP 1854 AND KPER 2 TO BINARY FILE HEADS FROM KSTP 1 AND KPER 2

 SFR-1 SETTING BUDGET TERMS FOR KSTP 1854 AND KPER 2 TO BUDGET FILE TERMS FROM KSTP 1 AND KPER 2

end timestep


start timestep kper="2" kstp="1855" mode="normal"


 FMI SETTING BUDGET TERMS FOR KSTP 1855 AND KPER 2 TO BUDGET FILE TERMS FROM KSTP 1 AND KPER 2

 FMI SETTING HEAD FOR KSTP 1855 AND KPER 2 TO BINARY FILE HEADS FROM KSTP 1 AND KPER 2

 SFR-1 SETTING BUDGET TERMS FOR KSTP 1855 AND KPER 2 TO BUDGET FILE TERMS FROM KSTP 1 AND KPER 2

end timestep


start timestep kper="2" kstp="1856" mode="normal"


 FMI SETTING BUDGET TERMS FOR KSTP 1856 AND KPER 2 TO BUDGET FILE TERMS FROM KSTP 1 AND KPER 2

 FMI SETTING HEAD FOR KSTP 1856 AND KPER 2 TO BINARY FILE HEADS FROM KSTP 1 AND KPER 2

 SFR-1 SETTING BUDGET TERMS FOR KSTP 1856 AND KPER 2 TO BUDGET FILE TERMS FROM KSTP 1 AND KPER 2

end timestep


start timestep kper="2" kstp="1857" mode="normal"


 FMI SETTING BUDGET TERMS FOR KSTP 1857 AND KPER 2 TO BUDGET FILE TERMS FROM KSTP 1 AND KPER 2

 FMI SETTING HEAD FOR KSTP 1857 AND KPER 2 TO BINARY FILE HEADS FROM KSTP 1 AND KPER 2

 SFR-1 SETTING BUDGET TERMS FOR KSTP 1857 AND KPER 2 TO BUDGET FILE TERMS FROM KSTP 1 AND KPER 2

end timestep


start timestep kper="2" kstp="1858" mode="normal"


 FMI SETTING BUDGET TERMS FOR KSTP 1858 AND KPER 2 TO BUDGET FILE TERMS FROM KSTP 1 AND KPER 2

 FMI SETTING HEAD FOR KSTP 1858 AND KPER 2 TO BINARY FILE HEADS FROM KSTP 1 AND KPER 2

 SFR-1 SETTING BUDGET TERMS FOR KSTP 1858 AND KPER 2 TO BUDGET FILE TERMS FROM KSTP 1 AND KPER 2

end timestep


start timestep kper="2" kstp="1859" mode="normal"


 FMI SETTING BUDGET TERMS FOR KSTP 1859 AND KPER 2 TO BUDGET FILE TERMS FROM KSTP 1 AND KPER 2

 FMI SETTING HEAD FOR KSTP 1859 AND KPER 2 TO BINARY FILE HEADS FROM KSTP 1 AND KPER 2

 SFR-1 SETTING BUDGET TERMS FOR KSTP 1859 AND KPER 2 TO BUDGET FILE TERMS FROM KSTP 1 AND KPER 2

end timestep


start timestep kper="2" kstp="1860" mode="normal"


 FMI SETTING BUDGET TERMS FOR KSTP 1860 AND KPER 2 TO BUDGET FILE TERMS FROM KSTP 1 AND KPER 2

 FMI SETTING HEAD FOR KSTP 1860 AND KPER 2 TO BINARY FILE HEADS FROM KSTP 1 AND KPER 2

 SFR-1 SETTING BUDGET TERMS FOR KSTP 1860 AND KPER 2 TO BUDGET FILE TERMS FROM KSTP 1 AND KPER 2

 CONCENTRATION WILL BE SAVED ON UNIT 1024 AT END OF TIME STEP 1860, STRESS PERIOD    2

end timestep


start timestep kper="2" kstp="1861" mode="normal"


 FMI SETTING BUDGET TERMS FOR KSTP 1861 AND KPER 2 TO BUDGET FILE TERMS FROM KSTP 1 AND KPER 2

 FMI SETTING HEAD FOR KSTP 1861 AND KPER 2 TO BINARY FILE HEADS FROM KSTP 1 AND KPER 2

 SFR-1 SETTING BUDGET TERMS FOR KSTP 1861 AND KPER 2 TO BUDGET FILE TERMS FROM KSTP 1 AND KPER 2

end timestep


start timestep kper="2" kstp="1862" mode="normal"


 FMI SETTING BUDGET TERMS FOR KSTP 1862 AND KPER 2 TO BUDGET FILE TERMS FROM KSTP 1 AND KPER 2

 FMI SETTING HEAD FOR KSTP 1862 AND KPER 2 TO BINARY FILE HEADS FROM KSTP 1 AND KPER 2

 SFR-1 SETTING BUDGET TERMS FOR KSTP 1862 AND KPER 2 TO BUDGET FILE TERMS FROM KSTP 1 AND KPER 2

end timestep


start timestep kper="2" kstp="1863" mode="normal"


 FMI SETTING BUDGET TERMS FOR KSTP 1863 AND KPER 2 TO BUDGET FILE TERMS FROM KSTP 1 AND KPER 2

 FMI SETTING HEAD FOR KSTP 1863 AND KPER 2 TO BINARY FILE HEADS FROM KSTP 1 AND KPER 2

 SFR-1 SETTING BUDGET TERMS FOR KSTP 1863 AND KPER 2 TO BUDGET FILE TERMS FROM KSTP 1 AND KPER 2

end timestep


start timestep kper="2" kstp="1864" mode="normal"


 FMI SETTING BUDGET TERMS FOR KSTP 1864 AND KPER 2 TO BUDGET FILE TERMS FROM KSTP 1 AND KPER 2

 FMI SETTING HEAD FOR KSTP 1864 AND KPER 2 TO BINARY FILE HEADS FROM KSTP 1 AND KPER 2

 SFR-1 SETTING BUDGET TERMS FOR KSTP 1864 AND KPER 2 TO BUDGET FILE TERMS FROM KSTP 1 AND KPER 2

end timestep


start timestep kper="2" kstp="1865" mode="normal"


 FMI SETTING BUDGET TERMS FOR KSTP 1865 AND KPER 2 TO BUDGET FILE TERMS FROM KSTP 1 AND KPER 2

 FMI SETTING HEAD FOR KSTP 1865 AND KPER 2 TO BINARY FILE HEADS FROM KSTP 1 AND KPER 2

 SFR-1 SETTING BUDGET TERMS FOR KSTP 1865 AND KPER 2 TO BUDGET FILE TERMS FROM KSTP 1 AND KPER 2

end timestep


start timestep kper="2" kstp="1866" mode="normal"


 FMI SETTING BUDGET TERMS FOR KSTP 1866 AND KPER 2 TO BUDGET FILE TERMS FROM KSTP 1 AND KPER 2

 FMI SETTING HEAD FOR KSTP 1866 AND KPER 2 TO BINARY FILE HEADS FROM KSTP 1 AND KPER 2

 SFR-1 SETTING BUDGET TERMS FOR KSTP 1866 AND KPER 2 TO BUDGET FILE TERMS FROM KSTP 1 AND KPER 2

end timestep


start timestep kper="2" kstp="1867" mode="normal"


 FMI SETTING BUDGET TERMS FOR KSTP 1867 AND KPER 2 TO BUDGET FILE TERMS FROM KSTP 1 AND KPER 2

 FMI SETTING HEAD FOR KSTP 1867 AND KPER 2 TO BINARY FILE HEADS FROM KSTP 1 AND KPER 2

 SFR-1 SETTING BUDGET TERMS FOR KSTP 1867 AND KPER 2 TO BUDGET FILE TERMS FROM KSTP 1 AND KPER 2

end timestep


start timestep kper="2" kstp="1868" mode="normal"


 FMI SETTING BUDGET TERMS FOR KSTP 1868 AND KPER 2 TO BUDGET FILE TERMS FROM KSTP 1 AND KPER 2

 FMI SETTING HEAD FOR KSTP 1868 AND KPER 2 TO BINARY FILE HEADS FROM KSTP 1 AND KPER 2

 SFR-1 SETTING BUDGET TERMS FOR KSTP 1868 AND KPER 2 TO BUDGET FILE TERMS FROM KSTP 1 AND KPER 2

end timestep


start timestep kper="2" kstp="1869" mode="normal"


 FMI SETTING BUDGET TERMS FOR KSTP 1869 AND KPER 2 TO BUDGET FILE TERMS FROM KSTP 1 AND KPER 2

 FMI SETTING HEAD FOR KSTP 1869 AND KPER 2 TO BINARY FILE HEADS FROM KSTP 1 AND KPER 2

 SFR-1 SETTING BUDGET TERMS FOR KSTP 1869 AND KPER 2 TO BUDGET FILE TERMS FROM KSTP 1 AND KPER 2

end timestep


start timestep kper="2" kstp="1870" mode="normal"


 FMI SETTING BUDGET TERMS FOR KSTP 1870 AND KPER 2 TO BUDGET FILE TERMS FROM KSTP 1 AND KPER 2

 FMI SETTING HEAD FOR KSTP 1870 AND KPER 2 TO BINARY FILE HEADS FROM KSTP 1 AND KPER 2

 SFR-1 SETTING BUDGET TERMS FOR KSTP 1870 AND KPER 2 TO BUDGET FILE TERMS FROM KSTP 1 AND KPER 2

 CONCENTRATION WILL BE SAVED ON UNIT 1024 AT END OF TIME STEP 1870, STRESS PERIOD    2

end timestep


start timestep kper="2" kstp="1871" mode="normal"


 FMI SETTING BUDGET TERMS FOR KSTP 1871 AND KPER 2 TO BUDGET FILE TERMS FROM KSTP 1 AND KPER 2

 FMI SETTING HEAD FOR KSTP 1871 AND KPER 2 TO BINARY FILE HEADS FROM KSTP 1 AND KPER 2

 SFR-1 SETTING BUDGET TERMS FOR KSTP 1871 AND KPER 2 TO BUDGET FILE TERMS FROM KSTP 1 AND KPER 2

end timestep


start timestep kper="2" kstp="1872" mode="normal"


 FMI SETTING BUDGET TERMS FOR KSTP 1872 AND KPER 2 TO BUDGET FILE TERMS FROM KSTP 1 AND KPER 2

 FMI SETTING HEAD FOR KSTP 1872 AND KPER 2 TO BINARY FILE HEADS FROM KSTP 1 AND KPER 2

 SFR-1 SETTING BUDGET TERMS FOR KSTP 1872 AND KPER 2 TO BUDGET FILE TERMS FROM KSTP 1 AND KPER 2

end timestep


start timestep kper="2" kstp="1873" mode="normal"


 FMI SETTING BUDGET TERMS FOR KSTP 1873 AND KPER 2 TO BUDGET FILE TERMS FROM KSTP 1 AND KPER 2

 FMI SETTING HEAD FOR KSTP 1873 AND KPER 2 TO BINARY FILE HEADS FROM KSTP 1 AND KPER 2

 SFR-1 SETTING BUDGET TERMS FOR KSTP 1873 AND KPER 2 TO BUDGET FILE TERMS FROM KSTP 1 AND KPER 2

end timestep


start timestep kper="2" kstp="1874" mode="normal"


 FMI SETTING BUDGET TERMS FOR KSTP 1874 AND KPER 2 TO BUDGET FILE TERMS FROM KSTP 1 AND KPER 2

 FMI SETTING HEAD FOR KSTP 1874 AND KPER 2 TO BINARY FILE HEADS FROM KSTP 1 AND KPER 2

 SFR-1 SETTING BUDGET TERMS FOR KSTP 1874 AND KPER 2 TO BUDGET FILE TERMS FROM KSTP 1 AND KPER 2

end timestep


start timestep kper="2" kstp="1875" mode="normal"


 FMI SETTING BUDGET TERMS FOR KSTP 1875 AND KPER 2 TO BUDGET FILE TERMS FROM KSTP 1 AND KPER 2

 FMI SETTING HEAD FOR KSTP 1875 AND KPER 2 TO BINARY FILE HEADS FROM KSTP 1 AND KPER 2

 SFR-1 SETTING BUDGET TERMS FOR KSTP 1875 AND KPER 2 TO BUDGET FILE TERMS FROM KSTP 1 AND KPER 2

end timestep


start timestep kper="2" kstp="1876" mode="normal"


 FMI SETTING BUDGET TERMS FOR KSTP 1876 AND KPER 2 TO BUDGET FILE TERMS FROM KSTP 1 AND KPER 2

 FMI SETTING HEAD FOR KSTP 1876 AND KPER 2 TO BINARY FILE HEADS FROM KSTP 1 AND KPER 2

 SFR-1 SETTING BUDGET TERMS FOR KSTP 1876 AND KPER 2 TO BUDGET FILE TERMS FROM KSTP 1 AND KPER 2

end timestep


start timestep kper="2" kstp="1877" mode="normal"


 FMI SETTING BUDGET TERMS FOR KSTP 1877 AND KPER 2 TO BUDGET FILE TERMS FROM KSTP 1 AND KPER 2

 FMI SETTING HEAD FOR KSTP 1877 AND KPER 2 TO BINARY FILE HEADS FROM KSTP 1 AND KPER 2

 SFR-1 SETTING BUDGET TERMS FOR KSTP 1877 AND KPER 2 TO BUDGET FILE TERMS FROM KSTP 1 AND KPER 2

end timestep


start timestep kper="2" kstp="1878" mode="normal"


 FMI SETTING BUDGET TERMS FOR KSTP 1878 AND KPER 2 TO BUDGET FILE TERMS FROM KSTP 1 AND KPER 2

 FMI SETTING HEAD FOR KSTP 1878 AND KPER 2 TO BINARY FILE HEADS FROM KSTP 1 AND KPER 2

 SFR-1 SETTING BUDGET TERMS FOR KSTP 1878 AND KPER 2 TO BUDGET FILE TERMS FROM KSTP 1 AND KPER 2

end timestep


start timestep kper="2" kstp="1879" mode="normal"


 FMI SETTING BUDGET TERMS FOR KSTP 1879 AND KPER 2 TO BUDGET FILE TERMS FROM KSTP 1 AND KPER 2

 FMI SETTING HEAD FOR KSTP 1879 AND KPER 2 TO BINARY FILE HEADS FROM KSTP 1 AND KPER 2

 SFR-1 SETTING BUDGET TERMS FOR KSTP 1879 AND KPER 2 TO BUDGET FILE TERMS FROM KSTP 1 AND KPER 2

end timestep


start timestep kper="2" kstp="1880" mode="normal"


 FMI SETTING BUDGET TERMS FOR KSTP 1880 AND KPER 2 TO BUDGET FILE TERMS FROM KSTP 1 AND KPER 2

 FMI SETTING HEAD FOR KSTP 1880 AND KPER 2 TO BINARY FILE HEADS FROM KSTP 1 AND KPER 2

 SFR-1 SETTING BUDGET TERMS FOR KSTP 1880 AND KPER 2 TO BUDGET FILE TERMS FROM KSTP 1 AND KPER 2

 CONCENTRATION WILL BE SAVED ON UNIT 1024 AT END OF TIME STEP 1880, STRESS PERIOD    2

end timestep


start timestep kper="2" kstp="1881" mode="normal"


 FMI SETTING BUDGET TERMS FOR KSTP 1881 AND KPER 2 TO BUDGET FILE TERMS FROM KSTP 1 AND KPER 2

 FMI SETTING HEAD FOR KSTP 1881 AND KPER 2 TO BINARY FILE HEADS FROM KSTP 1 AND KPER 2

 SFR-1 SETTING BUDGET TERMS FOR KSTP 1881 AND KPER 2 TO BUDGET FILE TERMS FROM KSTP 1 AND KPER 2

end timestep


start timestep kper="2" kstp="1882" mode="normal"


 FMI SETTING BUDGET TERMS FOR KSTP 1882 AND KPER 2 TO BUDGET FILE TERMS FROM KSTP 1 AND KPER 2

 FMI SETTING HEAD FOR KSTP 1882 AND KPER 2 TO BINARY FILE HEADS FROM KSTP 1 AND KPER 2

 SFR-1 SETTING BUDGET TERMS FOR KSTP 1882 AND KPER 2 TO BUDGET FILE TERMS FROM KSTP 1 AND KPER 2

end timestep


start timestep kper="2" kstp="1883" mode="normal"


 FMI SETTING BUDGET TERMS FOR KSTP 1883 AND KPER 2 TO BUDGET FILE TERMS FROM KSTP 1 AND KPER 2

 FMI SETTING HEAD FOR KSTP 1883 AND KPER 2 TO BINARY FILE HEADS FROM KSTP 1 AND KPER 2

 SFR-1 SETTING BUDGET TERMS FOR KSTP 1883 AND KPER 2 TO BUDGET FILE TERMS FROM KSTP 1 AND KPER 2

end timestep


start timestep kper="2" kstp="1884" mode="normal"


 FMI SETTING BUDGET TERMS FOR KSTP 1884 AND KPER 2 TO BUDGET FILE TERMS FROM KSTP 1 AND KPER 2

 FMI SETTING HEAD FOR KSTP 1884 AND KPER 2 TO BINARY FILE HEADS FROM KSTP 1 AND KPER 2

 SFR-1 SETTING BUDGET TERMS FOR KSTP 1884 AND KPER 2 TO BUDGET FILE TERMS FROM KSTP 1 AND KPER 2

end timestep


start timestep kper="2" kstp="1885" mode="normal"


 FMI SETTING BUDGET TERMS FOR KSTP 1885 AND KPER 2 TO BUDGET FILE TERMS FROM KSTP 1 AND KPER 2

 FMI SETTING HEAD FOR KSTP 1885 AND KPER 2 TO BINARY FILE HEADS FROM KSTP 1 AND KPER 2

 SFR-1 SETTING BUDGET TERMS FOR KSTP 1885 AND KPER 2 TO BUDGET FILE TERMS FROM KSTP 1 AND KPER 2

end timestep


start timestep kper="2" kstp="1886" mode="normal"


 FMI SETTING BUDGET TERMS FOR KSTP 1886 AND KPER 2 TO BUDGET FILE TERMS FROM KSTP 1 AND KPER 2

 FMI SETTING HEAD FOR KSTP 1886 AND KPER 2 TO BINARY FILE HEADS FROM KSTP 1 AND KPER 2

 SFR-1 SETTING BUDGET TERMS FOR KSTP 1886 AND KPER 2 TO BUDGET FILE TERMS FROM KSTP 1 AND KPER 2

end timestep


start timestep kper="2" kstp="1887" mode="normal"


 FMI SETTING BUDGET TERMS FOR KSTP 1887 AND KPER 2 TO BUDGET FILE TERMS FROM KSTP 1 AND KPER 2

 FMI SETTING HEAD FOR KSTP 1887 AND KPER 2 TO BINARY FILE HEADS FROM KSTP 1 AND KPER 2

 SFR-1 SETTING BUDGET TERMS FOR KSTP 1887 AND KPER 2 TO BUDGET FILE TERMS FROM KSTP 1 AND KPER 2

end timestep


start timestep kper="2" kstp="1888" mode="normal"


 FMI SETTING BUDGET TERMS FOR KSTP 1888 AND KPER 2 TO BUDGET FILE TERMS FROM KSTP 1 AND KPER 2

 FMI SETTING HEAD FOR KSTP 1888 AND KPER 2 TO BINARY FILE HEADS FROM KSTP 1 AND KPER 2

 SFR-1 SETTING BUDGET TERMS FOR KSTP 1888 AND KPER 2 TO BUDGET FILE TERMS FROM KSTP 1 AND KPER 2

end timestep


start timestep kper="2" kstp="1889" mode="normal"


 FMI SETTING BUDGET TERMS FOR KSTP 1889 AND KPER 2 TO BUDGET FILE TERMS FROM KSTP 1 AND KPER 2

 FMI SETTING HEAD FOR KSTP 1889 AND KPER 2 TO BINARY FILE HEADS FROM KSTP 1 AND KPER 2

 SFR-1 SETTING BUDGET TERMS FOR KSTP 1889 AND KPER 2 TO BUDGET FILE TERMS FROM KSTP 1 AND KPER 2

end timestep


start timestep kper="2" kstp="1890" mode="normal"


 FMI SETTING BUDGET TERMS FOR KSTP 1890 AND KPER 2 TO BUDGET FILE TERMS FROM KSTP 1 AND KPER 2

 FMI SETTING HEAD FOR KSTP 1890 AND KPER 2 TO BINARY FILE HEADS FROM KSTP 1 AND KPER 2

 SFR-1 SETTING BUDGET TERMS FOR KSTP 1890 AND KPER 2 TO BUDGET FILE TERMS FROM KSTP 1 AND KPER 2

 CONCENTRATION WILL BE SAVED ON UNIT 1024 AT END OF TIME STEP 1890, STRESS PERIOD    2

end timestep


start timestep kper="2" kstp="1891" mode="normal"


 FMI SETTING BUDGET TERMS FOR KSTP 1891 AND KPER 2 TO BUDGET FILE TERMS FROM KSTP 1 AND KPER 2

 FMI SETTING HEAD FOR KSTP 1891 AND KPER 2 TO BINARY FILE HEADS FROM KSTP 1 AND KPER 2

 SFR-1 SETTING BUDGET TERMS FOR KSTP 1891 AND KPER 2 TO BUDGET FILE TERMS FROM KSTP 1 AND KPER 2

end timestep


start timestep kper="2" kstp="1892" mode="normal"


 FMI SETTING BUDGET TERMS FOR KSTP 1892 AND KPER 2 TO BUDGET FILE TERMS FROM KSTP 1 AND KPER 2

 FMI SETTING HEAD FOR KSTP 1892 AND KPER 2 TO BINARY FILE HEADS FROM KSTP 1 AND KPER 2

 SFR-1 SETTING BUDGET TERMS FOR KSTP 1892 AND KPER 2 TO BUDGET FILE TERMS FROM KSTP 1 AND KPER 2

end timestep


start timestep kper="2" kstp="1893" mode="normal"


 FMI SETTING BUDGET TERMS FOR KSTP 1893 AND KPER 2 TO BUDGET FILE TERMS FROM KSTP 1 AND KPER 2

 FMI SETTING HEAD FOR KSTP 1893 AND KPER 2 TO BINARY FILE HEADS FROM KSTP 1 AND KPER 2

 SFR-1 SETTING BUDGET TERMS FOR KSTP 1893 AND KPER 2 TO BUDGET FILE TERMS FROM KSTP 1 AND KPER 2

end timestep


start timestep kper="2" kstp="1894" mode="normal"


 FMI SETTING BUDGET TERMS FOR KSTP 1894 AND KPER 2 TO BUDGET FILE TERMS FROM KSTP 1 AND KPER 2

 FMI SETTING HEAD FOR KSTP 1894 AND KPER 2 TO BINARY FILE HEADS FROM KSTP 1 AND KPER 2

 SFR-1 SETTING BUDGET TERMS FOR KSTP 1894 AND KPER 2 TO BUDGET FILE TERMS FROM KSTP 1 AND KPER 2

end timestep


start timestep kper="2" kstp="1895" mode="normal"


 FMI SETTING BUDGET TERMS FOR KSTP 1895 AND KPER 2 TO BUDGET FILE TERMS FROM KSTP 1 AND KPER 2

 FMI SETTING HEAD FOR KSTP 1895 AND KPER 2 TO BINARY FILE HEADS FROM KSTP 1 AND KPER 2

 SFR-1 SETTING BUDGET TERMS FOR KSTP 1895 AND KPER 2 TO BUDGET FILE TERMS FROM KSTP 1 AND KPER 2

end timestep


start timestep kper="2" kstp="1896" mode="normal"


 FMI SETTING BUDGET TERMS FOR KSTP 1896 AND KPER 2 TO BUDGET FILE TERMS FROM KSTP 1 AND KPER 2

 FMI SETTING HEAD FOR KSTP 1896 AND KPER 2 TO BINARY FILE HEADS FROM KSTP 1 AND KPER 2

 SFR-1 SETTING BUDGET TERMS FOR KSTP 1896 AND KPER 2 TO BUDGET FILE TERMS FROM KSTP 1 AND KPER 2

end timestep


start timestep kper="2" kstp="1897" mode="normal"


 FMI SETTING BUDGET TERMS FOR KSTP 1897 AND KPER 2 TO BUDGET FILE TERMS FROM KSTP 1 AND KPER 2

 FMI SETTING HEAD FOR KSTP 1897 AND KPER 2 TO BINARY FILE HEADS FROM KSTP 1 AND KPER 2

 SFR-1 SETTING BUDGET TERMS FOR KSTP 1897 AND KPER 2 TO BUDGET FILE TERMS FROM KSTP 1 AND KPER 2

end timestep


start timestep kper="2" kstp="1898" mode="normal"


 FMI SETTING BUDGET TERMS FOR KSTP 1898 AND KPER 2 TO BUDGET FILE TERMS FROM KSTP 1 AND KPER 2

 FMI SETTING HEAD FOR KSTP 1898 AND KPER 2 TO BINARY FILE HEADS FROM KSTP 1 AND KPER 2

 SFR-1 SETTING BUDGET TERMS FOR KSTP 1898 AND KPER 2 TO BUDGET FILE TERMS FROM KSTP 1 AND KPER 2

end timestep


start timestep kper="2" kstp="1899" mode="normal"


 FMI SETTING BUDGET TERMS FOR KSTP 1899 AND KPER 2 TO BUDGET FILE TERMS FROM KSTP 1 AND KPER 2

 FMI SETTING HEAD FOR KSTP 1899 AND KPER 2 TO BINARY FILE HEADS FROM KSTP 1 AND KPER 2

 SFR-1 SETTING BUDGET TERMS FOR KSTP 1899 AND KPER 2 TO BUDGET FILE TERMS FROM KSTP 1 AND KPER 2

end timestep


start timestep kper="2" kstp="1900" mode="normal"


 FMI SETTING BUDGET TERMS FOR KSTP 1900 AND KPER 2 TO BUDGET FILE TERMS FROM KSTP 1 AND KPER 2

 FMI SETTING HEAD FOR KSTP 1900 AND KPER 2 TO BINARY FILE HEADS FROM KSTP 1 AND KPER 2

 SFR-1 SETTING BUDGET TERMS FOR KSTP 1900 AND KPER 2 TO BUDGET FILE TERMS FROM KSTP 1 AND KPER 2

 CONCENTRATION WILL BE SAVED ON UNIT 1024 AT END OF TIME STEP 1900, STRESS PERIOD    2

end timestep


start timestep kper="2" kstp="1901" mode="normal"


 FMI SETTING BUDGET TERMS FOR KSTP 1901 AND KPER 2 TO BUDGET FILE TERMS FROM KSTP 1 AND KPER 2

 FMI SETTING HEAD FOR KSTP 1901 AND KPER 2 TO BINARY FILE HEADS FROM KSTP 1 AND KPER 2

 SFR-1 SETTING BUDGET TERMS FOR KSTP 1901 AND KPER 2 TO BUDGET FILE TERMS FROM KSTP 1 AND KPER 2

end timestep


start timestep kper="2" kstp="1902" mode="normal"


 FMI SETTING BUDGET TERMS FOR KSTP 1902 AND KPER 2 TO BUDGET FILE TERMS FROM KSTP 1 AND KPER 2

 FMI SETTING HEAD FOR KSTP 1902 AND KPER 2 TO BINARY FILE HEADS FROM KSTP 1 AND KPER 2

 SFR-1 SETTING BUDGET TERMS FOR KSTP 1902 AND KPER 2 TO BUDGET FILE TERMS FROM KSTP 1 AND KPER 2

end timestep


start timestep kper="2" kstp="1903" mode="normal"


 FMI SETTING BUDGET TERMS FOR KSTP 1903 AND KPER 2 TO BUDGET FILE TERMS FROM KSTP 1 AND KPER 2

 FMI SETTING HEAD FOR KSTP 1903 AND KPER 2 TO BINARY FILE HEADS FROM KSTP 1 AND KPER 2

 SFR-1 SETTING BUDGET TERMS FOR KSTP 1903 AND KPER 2 TO BUDGET FILE TERMS FROM KSTP 1 AND KPER 2

end timestep


start timestep kper="2" kstp="1904" mode="normal"


 FMI SETTING BUDGET TERMS FOR KSTP 1904 AND KPER 2 TO BUDGET FILE TERMS FROM KSTP 1 AND KPER 2

 FMI SETTING HEAD FOR KSTP 1904 AND KPER 2 TO BINARY FILE HEADS FROM KSTP 1 AND KPER 2

 SFR-1 SETTING BUDGET TERMS FOR KSTP 1904 AND KPER 2 TO BUDGET FILE TERMS FROM KSTP 1 AND KPER 2

end timestep


start timestep kper="2" kstp="1905" mode="normal"


 FMI SETTING BUDGET TERMS FOR KSTP 1905 AND KPER 2 TO BUDGET FILE TERMS FROM KSTP 1 AND KPER 2

 FMI SETTING HEAD FOR KSTP 1905 AND KPER 2 TO BINARY FILE HEADS FROM KSTP 1 AND KPER 2

 SFR-1 SETTING BUDGET TERMS FOR KSTP 1905 AND KPER 2 TO BUDGET FILE TERMS FROM KSTP 1 AND KPER 2

end timestep


start timestep kper="2" kstp="1906" mode="normal"


 FMI SETTING BUDGET TERMS FOR KSTP 1906 AND KPER 2 TO BUDGET FILE TERMS FROM KSTP 1 AND KPER 2

 FMI SETTING HEAD FOR KSTP 1906 AND KPER 2 TO BINARY FILE HEADS FROM KSTP 1 AND KPER 2

 SFR-1 SETTING BUDGET TERMS FOR KSTP 1906 AND KPER 2 TO BUDGET FILE TERMS FROM KSTP 1 AND KPER 2

end timestep


start timestep kper="2" kstp="1907" mode="normal"


 FMI SETTING BUDGET TERMS FOR KSTP 1907 AND KPER 2 TO BUDGET FILE TERMS FROM KSTP 1 AND KPER 2

 FMI SETTING HEAD FOR KSTP 1907 AND KPER 2 TO BINARY FILE HEADS FROM KSTP 1 AND KPER 2

 SFR-1 SETTING BUDGET TERMS FOR KSTP 1907 AND KPER 2 TO BUDGET FILE TERMS FROM KSTP 1 AND KPER 2

end timestep


start timestep kper="2" kstp="1908" mode="normal"


 FMI SETTING BUDGET TERMS FOR KSTP 1908 AND KPER 2 TO BUDGET FILE TERMS FROM KSTP 1 AND KPER 2

 FMI SETTING HEAD FOR KSTP 1908 AND KPER 2 TO BINARY FILE HEADS FROM KSTP 1 AND KPER 2

 SFR-1 SETTING BUDGET TERMS FOR KSTP 1908 AND KPER 2 TO BUDGET FILE TERMS FROM KSTP 1 AND KPER 2

end timestep


start timestep kper="2" kstp="1909" mode="normal"


 FMI SETTING BUDGET TERMS FOR KSTP 1909 AND KPER 2 TO BUDGET FILE TERMS FROM KSTP 1 AND KPER 2

 FMI SETTING HEAD FOR KSTP 1909 AND KPER 2 TO BINARY FILE HEADS FROM KSTP 1 AND KPER 2

 SFR-1 SETTING BUDGET TERMS FOR KSTP 1909 AND KPER 2 TO BUDGET FILE TERMS FROM KSTP 1 AND KPER 2

end timestep


start timestep kper="2" kstp="1910" mode="normal"


 FMI SETTING BUDGET TERMS FOR KSTP 1910 AND KPER 2 TO BUDGET FILE TERMS FROM KSTP 1 AND KPER 2

 FMI SETTING HEAD FOR KSTP 1910 AND KPER 2 TO BINARY FILE HEADS FROM KSTP 1 AND KPER 2

 SFR-1 SETTING BUDGET TERMS FOR KSTP 1910 AND KPER 2 TO BUDGET FILE TERMS FROM KSTP 1 AND KPER 2

 CONCENTRATION WILL BE SAVED ON UNIT 1024 AT END OF TIME STEP 1910, STRESS PERIOD    2

end timestep


start timestep kper="2" kstp="1911" mode="normal"


 FMI SETTING BUDGET TERMS FOR KSTP 1911 AND KPER 2 TO BUDGET FILE TERMS FROM KSTP 1 AND KPER 2

 FMI SETTING HEAD FOR KSTP 1911 AND KPER 2 TO BINARY FILE HEADS FROM KSTP 1 AND KPER 2

 SFR-1 SETTING BUDGET TERMS FOR KSTP 1911 AND KPER 2 TO BUDGET FILE TERMS FROM KSTP 1 AND KPER 2

end timestep


start timestep kper="2" kstp="1912" mode="normal"


 FMI SETTING BUDGET TERMS FOR KSTP 1912 AND KPER 2 TO BUDGET FILE TERMS FROM KSTP 1 AND KPER 2

 FMI SETTING HEAD FOR KSTP 1912 AND KPER 2 TO BINARY FILE HEADS FROM KSTP 1 AND KPER 2

 SFR-1 SETTING BUDGET TERMS FOR KSTP 1912 AND KPER 2 TO BUDGET FILE TERMS FROM KSTP 1 AND KPER 2

end timestep


start timestep kper="2" kstp="1913" mode="normal"


 FMI SETTING BUDGET TERMS FOR KSTP 1913 AND KPER 2 TO BUDGET FILE TERMS FROM KSTP 1 AND KPER 2

 FMI SETTING HEAD FOR KSTP 1913 AND KPER 2 TO BINARY FILE HEADS FROM KSTP 1 AND KPER 2

 SFR-1 SETTING BUDGET TERMS FOR KSTP 1913 AND KPER 2 TO BUDGET FILE TERMS FROM KSTP 1 AND KPER 2

end timestep


start timestep kper="2" kstp="1914" mode="normal"


 FMI SETTING BUDGET TERMS FOR KSTP 1914 AND KPER 2 TO BUDGET FILE TERMS FROM KSTP 1 AND KPER 2

 FMI SETTING HEAD FOR KSTP 1914 AND KPER 2 TO BINARY FILE HEADS FROM KSTP 1 AND KPER 2

 SFR-1 SETTING BUDGET TERMS FOR KSTP 1914 AND KPER 2 TO BUDGET FILE TERMS FROM KSTP 1 AND KPER 2

end timestep


start timestep kper="2" kstp="1915" mode="normal"


 FMI SETTING BUDGET TERMS FOR KSTP 1915 AND KPER 2 TO BUDGET FILE TERMS FROM KSTP 1 AND KPER 2

 FMI SETTING HEAD FOR KSTP 1915 AND KPER 2 TO BINARY FILE HEADS FROM KSTP 1 AND KPER 2

 SFR-1 SETTING BUDGET TERMS FOR KSTP 1915 AND KPER 2 TO BUDGET FILE TERMS FROM KSTP 1 AND KPER 2

end timestep


start timestep kper="2" kstp="1916" mode="normal"


 FMI SETTING BUDGET TERMS FOR KSTP 1916 AND KPER 2 TO BUDGET FILE TERMS FROM KSTP 1 AND KPER 2

 FMI SETTING HEAD FOR KSTP 1916 AND KPER 2 TO BINARY FILE HEADS FROM KSTP 1 AND KPER 2

 SFR-1 SETTING BUDGET TERMS FOR KSTP 1916 AND KPER 2 TO BUDGET FILE TERMS FROM KSTP 1 AND KPER 2

end timestep


start timestep kper="2" kstp="1917" mode="normal"


 FMI SETTING BUDGET TERMS FOR KSTP 1917 AND KPER 2 TO BUDGET FILE TERMS FROM KSTP 1 AND KPER 2

 FMI SETTING HEAD FOR KSTP 1917 AND KPER 2 TO BINARY FILE HEADS FROM KSTP 1 AND KPER 2

 SFR-1 SETTING BUDGET TERMS FOR KSTP 1917 AND KPER 2 TO BUDGET FILE TERMS FROM KSTP 1 AND KPER 2

end timestep


start timestep kper="2" kstp="1918" mode="normal"


 FMI SETTING BUDGET TERMS FOR KSTP 1918 AND KPER 2 TO BUDGET FILE TERMS FROM KSTP 1 AND KPER 2

 FMI SETTING HEAD FOR KSTP 1918 AND KPER 2 TO BINARY FILE HEADS FROM KSTP 1 AND KPER 2

 SFR-1 SETTING BUDGET TERMS FOR KSTP 1918 AND KPER 2 TO BUDGET FILE TERMS FROM KSTP 1 AND KPER 2

end timestep


start timestep kper="2" kstp="1919" mode="normal"


 FMI SETTING BUDGET TERMS FOR KSTP 1919 AND KPER 2 TO BUDGET FILE TERMS FROM KSTP 1 AND KPER 2

 FMI SETTING HEAD FOR KSTP 1919 AND KPER 2 TO BINARY FILE HEADS FROM KSTP 1 AND KPER 2

 SFR-1 SETTING BUDGET TERMS FOR KSTP 1919 AND KPER 2 TO BUDGET FILE TERMS FROM KSTP 1 AND KPER 2

end timestep


start timestep kper="2" kstp="1920" mode="normal"


 FMI SETTING BUDGET TERMS FOR KSTP 1920 AND KPER 2 TO BUDGET FILE TERMS FROM KSTP 1 AND KPER 2

 FMI SETTING HEAD FOR KSTP 1920 AND KPER 2 TO BINARY FILE HEADS FROM KSTP 1 AND KPER 2

 SFR-1 SETTING BUDGET TERMS FOR KSTP 1920 AND KPER 2 TO BUDGET FILE TERMS FROM KSTP 1 AND KPER 2

 CONCENTRATION WILL BE SAVED ON UNIT 1024 AT END OF TIME STEP 1920, STRESS PERIOD    2

end timestep


start timestep kper="2" kstp="1921" mode="normal"


 FMI SETTING BUDGET TERMS FOR KSTP 1921 AND KPER 2 TO BUDGET FILE TERMS FROM KSTP 1 AND KPER 2

 FMI SETTING HEAD FOR KSTP 1921 AND KPER 2 TO BINARY FILE HEADS FROM KSTP 1 AND KPER 2

 SFR-1 SETTING BUDGET TERMS FOR KSTP 1921 AND KPER 2 TO BUDGET FILE TERMS FROM KSTP 1 AND KPER 2

end timestep


start timestep kper="2" kstp="1922" mode="normal"


 FMI SETTING BUDGET TERMS FOR KSTP 1922 AND KPER 2 TO BUDGET FILE TERMS FROM KSTP 1 AND KPER 2

 FMI SETTING HEAD FOR KSTP 1922 AND KPER 2 TO BINARY FILE HEADS FROM KSTP 1 AND KPER 2

 SFR-1 SETTING BUDGET TERMS FOR KSTP 1922 AND KPER 2 TO BUDGET FILE TERMS FROM KSTP 1 AND KPER 2

end timestep


start timestep kper="2" kstp="1923" mode="normal"


 FMI SETTING BUDGET TERMS FOR KSTP 1923 AND KPER 2 TO BUDGET FILE TERMS FROM KSTP 1 AND KPER 2

 FMI SETTING HEAD FOR KSTP 1923 AND KPER 2 TO BINARY FILE HEADS FROM KSTP 1 AND KPER 2

 SFR-1 SETTING BUDGET TERMS FOR KSTP 1923 AND KPER 2 TO BUDGET FILE TERMS FROM KSTP 1 AND KPER 2

end timestep


start timestep kper="2" kstp="1924" mode="normal"


 FMI SETTING BUDGET TERMS FOR KSTP 1924 AND KPER 2 TO BUDGET FILE TERMS FROM KSTP 1 AND KPER 2

 FMI SETTING HEAD FOR KSTP 1924 AND KPER 2 TO BINARY FILE HEADS FROM KSTP 1 AND KPER 2

 SFR-1 SETTING BUDGET TERMS FOR KSTP 1924 AND KPER 2 TO BUDGET FILE TERMS FROM KSTP 1 AND KPER 2

end timestep


start timestep kper="2" kstp="1925" mode="normal"


 FMI SETTING BUDGET TERMS FOR KSTP 1925 AND KPER 2 TO BUDGET FILE TERMS FROM KSTP 1 AND KPER 2

 FMI SETTING HEAD FOR KSTP 1925 AND KPER 2 TO BINARY FILE HEADS FROM KSTP 1 AND KPER 2

 SFR-1 SETTING BUDGET TERMS FOR KSTP 1925 AND KPER 2 TO BUDGET FILE TERMS FROM KSTP 1 AND KPER 2

end timestep


start timestep kper="2" kstp="1926" mode="normal"


 FMI SETTING BUDGET TERMS FOR KSTP 1926 AND KPER 2 TO BUDGET FILE TERMS FROM KSTP 1 AND KPER 2

 FMI SETTING HEAD FOR KSTP 1926 AND KPER 2 TO BINARY FILE HEADS FROM KSTP 1 AND KPER 2

 SFR-1 SETTING BUDGET TERMS FOR KSTP 1926 AND KPER 2 TO BUDGET FILE TERMS FROM KSTP 1 AND KPER 2

end timestep


start timestep kper="2" kstp="1927" mode="normal"


 FMI SETTING BUDGET TERMS FOR KSTP 1927 AND KPER 2 TO BUDGET FILE TERMS FROM KSTP 1 AND KPER 2

 FMI SETTING HEAD FOR KSTP 1927 AND KPER 2 TO BINARY FILE HEADS FROM KSTP 1 AND KPER 2

 SFR-1 SETTING BUDGET TERMS FOR KSTP 1927 AND KPER 2 TO BUDGET FILE TERMS FROM KSTP 1 AND KPER 2

end timestep


start timestep kper="2" kstp="1928" mode="normal"


 FMI SETTING BUDGET TERMS FOR KSTP 1928 AND KPER 2 TO BUDGET FILE TERMS FROM KSTP 1 AND KPER 2

 FMI SETTING HEAD FOR KSTP 1928 AND KPER 2 TO BINARY FILE HEADS FROM KSTP 1 AND KPER 2

 SFR-1 SETTING BUDGET TERMS FOR KSTP 1928 AND KPER 2 TO BUDGET FILE TERMS FROM KSTP 1 AND KPER 2

end timestep


start timestep kper="2" kstp="1929" mode="normal"


 FMI SETTING BUDGET TERMS FOR KSTP 1929 AND KPER 2 TO BUDGET FILE TERMS FROM KSTP 1 AND KPER 2

 FMI SETTING HEAD FOR KSTP 1929 AND KPER 2 TO BINARY FILE HEADS FROM KSTP 1 AND KPER 2

 SFR-1 SETTING BUDGET TERMS FOR KSTP 1929 AND KPER 2 TO BUDGET FILE TERMS FROM KSTP 1 AND KPER 2

end timestep


start timestep kper="2" kstp="1930" mode="normal"


 FMI SETTING BUDGET TERMS FOR KSTP 1930 AND KPER 2 TO BUDGET FILE TERMS FROM KSTP 1 AND KPER 2

 FMI SETTING HEAD FOR KSTP 1930 AND KPER 2 TO BINARY FILE HEADS FROM KSTP 1 AND KPER 2

 SFR-1 SETTING BUDGET TERMS FOR KSTP 1930 AND KPER 2 TO BUDGET FILE TERMS FROM KSTP 1 AND KPER 2

 CONCENTRATION WILL BE SAVED ON UNIT 1024 AT END OF TIME STEP 1930, STRESS PERIOD    2

end timestep


start timestep kper="2" kstp="1931" mode="normal"


 FMI SETTING BUDGET TERMS FOR KSTP 1931 AND KPER 2 TO BUDGET FILE TERMS FROM KSTP 1 AND KPER 2

 FMI SETTING HEAD FOR KSTP 1931 AND KPER 2 TO BINARY FILE HEADS FROM KSTP 1 AND KPER 2

 SFR-1 SETTING BUDGET TERMS FOR KSTP 1931 AND KPER 2 TO BUDGET FILE TERMS FROM KSTP 1 AND KPER 2

end timestep


start timestep kper="2" kstp="1932" mode="normal"


 FMI SETTING BUDGET TERMS FOR KSTP 1932 AND KPER 2 TO BUDGET FILE TERMS FROM KSTP 1 AND KPER 2

 FMI SETTING HEAD FOR KSTP 1932 AND KPER 2 TO BINARY FILE HEADS FROM KSTP 1 AND KPER 2

 SFR-1 SETTING BUDGET TERMS FOR KSTP 1932 AND KPER 2 TO BUDGET FILE TERMS FROM KSTP 1 AND KPER 2

end timestep


start timestep kper="2" kstp="1933" mode="normal"


 FMI SETTING BUDGET TERMS FOR KSTP 1933 AND KPER 2 TO BUDGET FILE TERMS FROM KSTP 1 AND KPER 2

 FMI SETTING HEAD FOR KSTP 1933 AND KPER 2 TO BINARY FILE HEADS FROM KSTP 1 AND KPER 2

 SFR-1 SETTING BUDGET TERMS FOR KSTP 1933 AND KPER 2 TO BUDGET FILE TERMS FROM KSTP 1 AND KPER 2

end timestep


start timestep kper="2" kstp="1934" mode="normal"


 FMI SETTING BUDGET TERMS FOR KSTP 1934 AND KPER 2 TO BUDGET FILE TERMS FROM KSTP 1 AND KPER 2

 FMI SETTING HEAD FOR KSTP 1934 AND KPER 2 TO BINARY FILE HEADS FROM KSTP 1 AND KPER 2

 SFR-1 SETTING BUDGET TERMS FOR KSTP 1934 AND KPER 2 TO BUDGET FILE TERMS FROM KSTP 1 AND KPER 2

end timestep


start timestep kper="2" kstp="1935" mode="normal"


 FMI SETTING BUDGET TERMS FOR KSTP 1935 AND KPER 2 TO BUDGET FILE TERMS FROM KSTP 1 AND KPER 2

 FMI SETTING HEAD FOR KSTP 1935 AND KPER 2 TO BINARY FILE HEADS FROM KSTP 1 AND KPER 2

 SFR-1 SETTING BUDGET TERMS FOR KSTP 1935 AND KPER 2 TO BUDGET FILE TERMS FROM KSTP 1 AND KPER 2

end timestep


start timestep kper="2" kstp="1936" mode="normal"


 FMI SETTING BUDGET TERMS FOR KSTP 1936 AND KPER 2 TO BUDGET FILE TERMS FROM KSTP 1 AND KPER 2

 FMI SETTING HEAD FOR KSTP 1936 AND KPER 2 TO BINARY FILE HEADS FROM KSTP 1 AND KPER 2

 SFR-1 SETTING BUDGET TERMS FOR KSTP 1936 AND KPER 2 TO BUDGET FILE TERMS FROM KSTP 1 AND KPER 2

end timestep


start timestep kper="2" kstp="1937" mode="normal"


 FMI SETTING BUDGET TERMS FOR KSTP 1937 AND KPER 2 TO BUDGET FILE TERMS FROM KSTP 1 AND KPER 2

 FMI SETTING HEAD FOR KSTP 1937 AND KPER 2 TO BINARY FILE HEADS FROM KSTP 1 AND KPER 2

 SFR-1 SETTING BUDGET TERMS FOR KSTP 1937 AND KPER 2 TO BUDGET FILE TERMS FROM KSTP 1 AND KPER 2

end timestep


start timestep kper="2" kstp="1938" mode="normal"


 FMI SETTING BUDGET TERMS FOR KSTP 1938 AND KPER 2 TO BUDGET FILE TERMS FROM KSTP 1 AND KPER 2

 FMI SETTING HEAD FOR KSTP 1938 AND KPER 2 TO BINARY FILE HEADS FROM KSTP 1 AND KPER 2

 SFR-1 SETTING BUDGET TERMS FOR KSTP 1938 AND KPER 2 TO BUDGET FILE TERMS FROM KSTP 1 AND KPER 2

end timestep


start timestep kper="2" kstp="1939" mode="normal"


 FMI SETTING BUDGET TERMS FOR KSTP 1939 AND KPER 2 TO BUDGET FILE TERMS FROM KSTP 1 AND KPER 2

 FMI SETTING HEAD FOR KSTP 1939 AND KPER 2 TO BINARY FILE HEADS FROM KSTP 1 AND KPER 2

 SFR-1 SETTING BUDGET TERMS FOR KSTP 1939 AND KPER 2 TO BUDGET FILE TERMS FROM KSTP 1 AND KPER 2

end timestep


start timestep kper="2" kstp="1940" mode="normal"


 FMI SETTING BUDGET TERMS FOR KSTP 1940 AND KPER 2 TO BUDGET FILE TERMS FROM KSTP 1 AND KPER 2

 FMI SETTING HEAD FOR KSTP 1940 AND KPER 2 TO BINARY FILE HEADS FROM KSTP 1 AND KPER 2

 SFR-1 SETTING BUDGET TERMS FOR KSTP 1940 AND KPER 2 TO BUDGET FILE TERMS FROM KSTP 1 AND KPER 2

 CONCENTRATION WILL BE SAVED ON UNIT 1024 AT END OF TIME STEP 1940, STRESS PERIOD    2

end timestep


start timestep kper="2" kstp="1941" mode="normal"


 FMI SETTING BUDGET TERMS FOR KSTP 1941 AND KPER 2 TO BUDGET FILE TERMS FROM KSTP 1 AND KPER 2

 FMI SETTING HEAD FOR KSTP 1941 AND KPER 2 TO BINARY FILE HEADS FROM KSTP 1 AND KPER 2

 SFR-1 SETTING BUDGET TERMS FOR KSTP 1941 AND KPER 2 TO BUDGET FILE TERMS FROM KSTP 1 AND KPER 2

end timestep


start timestep kper="2" kstp="1942" mode="normal"


 FMI SETTING BUDGET TERMS FOR KSTP 1942 AND KPER 2 TO BUDGET FILE TERMS FROM KSTP 1 AND KPER 2

 FMI SETTING HEAD FOR KSTP 1942 AND KPER 2 TO BINARY FILE HEADS FROM KSTP 1 AND KPER 2

 SFR-1 SETTING BUDGET TERMS FOR KSTP 1942 AND KPER 2 TO BUDGET FILE TERMS FROM KSTP 1 AND KPER 2

end timestep


start timestep kper="2" kstp="1943" mode="normal"


 FMI SETTING BUDGET TERMS FOR KSTP 1943 AND KPER 2 TO BUDGET FILE TERMS FROM KSTP 1 AND KPER 2

 FMI SETTING HEAD FOR KSTP 1943 AND KPER 2 TO BINARY FILE HEADS FROM KSTP 1 AND KPER 2

 SFR-1 SETTING BUDGET TERMS FOR KSTP 1943 AND KPER 2 TO BUDGET FILE TERMS FROM KSTP 1 AND KPER 2

end timestep


start timestep kper="2" kstp="1944" mode="normal"


 FMI SETTING BUDGET TERMS FOR KSTP 1944 AND KPER 2 TO BUDGET FILE TERMS FROM KSTP 1 AND KPER 2

 FMI SETTING HEAD FOR KSTP 1944 AND KPER 2 TO BINARY FILE HEADS FROM KSTP 1 AND KPER 2

 SFR-1 SETTING BUDGET TERMS FOR KSTP 1944 AND KPER 2 TO BUDGET FILE TERMS FROM KSTP 1 AND KPER 2

end timestep


start timestep kper="2" kstp="1945" mode="normal"


 FMI SETTING BUDGET TERMS FOR KSTP 1945 AND KPER 2 TO BUDGET FILE TERMS FROM KSTP 1 AND KPER 2

 FMI SETTING HEAD FOR KSTP 1945 AND KPER 2 TO BINARY FILE HEADS FROM KSTP 1 AND KPER 2

 SFR-1 SETTING BUDGET TERMS FOR KSTP 1945 AND KPER 2 TO BUDGET FILE TERMS FROM KSTP 1 AND KPER 2

end timestep


start timestep kper="2" kstp="1946" mode="normal"


 FMI SETTING BUDGET TERMS FOR KSTP 1946 AND KPER 2 TO BUDGET FILE TERMS FROM KSTP 1 AND KPER 2

 FMI SETTING HEAD FOR KSTP 1946 AND KPER 2 TO BINARY FILE HEADS FROM KSTP 1 AND KPER 2

 SFR-1 SETTING BUDGET TERMS FOR KSTP 1946 AND KPER 2 TO BUDGET FILE TERMS FROM KSTP 1 AND KPER 2

end timestep


start timestep kper="2" kstp="1947" mode="normal"


 FMI SETTING BUDGET TERMS FOR KSTP 1947 AND KPER 2 TO BUDGET FILE TERMS FROM KSTP 1 AND KPER 2

 FMI SETTING HEAD FOR KSTP 1947 AND KPER 2 TO BINARY FILE HEADS FROM KSTP 1 AND KPER 2

 SFR-1 SETTING BUDGET TERMS FOR KSTP 1947 AND KPER 2 TO BUDGET FILE TERMS FROM KSTP 1 AND KPER 2

end timestep


start timestep kper="2" kstp="1948" mode="normal"


 FMI SETTING BUDGET TERMS FOR KSTP 1948 AND KPER 2 TO BUDGET FILE TERMS FROM KSTP 1 AND KPER 2

 FMI SETTING HEAD FOR KSTP 1948 AND KPER 2 TO BINARY FILE HEADS FROM KSTP 1 AND KPER 2

 SFR-1 SETTING BUDGET TERMS FOR KSTP 1948 AND KPER 2 TO BUDGET FILE TERMS FROM KSTP 1 AND KPER 2

end timestep


start timestep kper="2" kstp="1949" mode="normal"


 FMI SETTING BUDGET TERMS FOR KSTP 1949 AND KPER 2 TO BUDGET FILE TERMS FROM KSTP 1 AND KPER 2

 FMI SETTING HEAD FOR KSTP 1949 AND KPER 2 TO BINARY FILE HEADS FROM KSTP 1 AND KPER 2

 SFR-1 SETTING BUDGET TERMS FOR KSTP 1949 AND KPER 2 TO BUDGET FILE TERMS FROM KSTP 1 AND KPER 2

end timestep


start timestep kper="2" kstp="1950" mode="normal"


 FMI SETTING BUDGET TERMS FOR KSTP 1950 AND KPER 2 TO BUDGET FILE TERMS FROM KSTP 1 AND KPER 2

 FMI SETTING HEAD FOR KSTP 1950 AND KPER 2 TO BINARY FILE HEADS FROM KSTP 1 AND KPER 2

 SFR-1 SETTING BUDGET TERMS FOR KSTP 1950 AND KPER 2 TO BUDGET FILE TERMS FROM KSTP 1 AND KPER 2

 CONCENTRATION WILL BE SAVED ON UNIT 1024 AT END OF TIME STEP 1950, STRESS PERIOD    2

end timestep


start timestep kper="2" kstp="1951" mode="normal"


 FMI SETTING BUDGET TERMS FOR KSTP 1951 AND KPER 2 TO BUDGET FILE TERMS FROM KSTP 1 AND KPER 2

 FMI SETTING HEAD FOR KSTP 1951 AND KPER 2 TO BINARY FILE HEADS FROM KSTP 1 AND KPER 2

 SFR-1 SETTING BUDGET TERMS FOR KSTP 1951 AND KPER 2 TO BUDGET FILE TERMS FROM KSTP 1 AND KPER 2

end timestep


start timestep kper="2" kstp="1952" mode="normal"


 FMI SETTING BUDGET TERMS FOR KSTP 1952 AND KPER 2 TO BUDGET FILE TERMS FROM KSTP 1 AND KPER 2

 FMI SETTING HEAD FOR KSTP 1952 AND KPER 2 TO BINARY FILE HEADS FROM KSTP 1 AND KPER 2

 SFR-1 SETTING BUDGET TERMS FOR KSTP 1952 AND KPER 2 TO BUDGET FILE TERMS FROM KSTP 1 AND KPER 2

end timestep


start timestep kper="2" kstp="1953" mode="normal"


 FMI SETTING BUDGET TERMS FOR KSTP 1953 AND KPER 2 TO BUDGET FILE TERMS FROM KSTP 1 AND KPER 2

 FMI SETTING HEAD FOR KSTP 1953 AND KPER 2 TO BINARY FILE HEADS FROM KSTP 1 AND KPER 2

 SFR-1 SETTING BUDGET TERMS FOR KSTP 1953 AND KPER 2 TO BUDGET FILE TERMS FROM KSTP 1 AND KPER 2

end timestep


start timestep kper="2" kstp="1954" mode="normal"


 FMI SETTING BUDGET TERMS FOR KSTP 1954 AND KPER 2 TO BUDGET FILE TERMS FROM KSTP 1 AND KPER 2

 FMI SETTING HEAD FOR KSTP 1954 AND KPER 2 TO BINARY FILE HEADS FROM KSTP 1 AND KPER 2

 SFR-1 SETTING BUDGET TERMS FOR KSTP 1954 AND KPER 2 TO BUDGET FILE TERMS FROM KSTP 1 AND KPER 2

end timestep


start timestep kper="2" kstp="1955" mode="normal"


 FMI SETTING BUDGET TERMS FOR KSTP 1955 AND KPER 2 TO BUDGET FILE TERMS FROM KSTP 1 AND KPER 2

 FMI SETTING HEAD FOR KSTP 1955 AND KPER 2 TO BINARY FILE HEADS FROM KSTP 1 AND KPER 2

 SFR-1 SETTING BUDGET TERMS FOR KSTP 1955 AND KPER 2 TO BUDGET FILE TERMS FROM KSTP 1 AND KPER 2

end timestep


start timestep kper="2" kstp="1956" mode="normal"


 FMI SETTING BUDGET TERMS FOR KSTP 1956 AND KPER 2 TO BUDGET FILE TERMS FROM KSTP 1 AND KPER 2

 FMI SETTING HEAD FOR KSTP 1956 AND KPER 2 TO BINARY FILE HEADS FROM KSTP 1 AND KPER 2

 SFR-1 SETTING BUDGET TERMS FOR KSTP 1956 AND KPER 2 TO BUDGET FILE TERMS FROM KSTP 1 AND KPER 2

end timestep


start timestep kper="2" kstp="1957" mode="normal"


 FMI SETTING BUDGET TERMS FOR KSTP 1957 AND KPER 2 TO BUDGET FILE TERMS FROM KSTP 1 AND KPER 2

 FMI SETTING HEAD FOR KSTP 1957 AND KPER 2 TO BINARY FILE HEADS FROM KSTP 1 AND KPER 2

 SFR-1 SETTING BUDGET TERMS FOR KSTP 1957 AND KPER 2 TO BUDGET FILE TERMS FROM KSTP 1 AND KPER 2

end timestep


start timestep kper="2" kstp="1958" mode="normal"


 FMI SETTING BUDGET TERMS FOR KSTP 1958 AND KPER 2 TO BUDGET FILE TERMS FROM KSTP 1 AND KPER 2

 FMI SETTING HEAD FOR KSTP 1958 AND KPER 2 TO BINARY FILE HEADS FROM KSTP 1 AND KPER 2

 SFR-1 SETTING BUDGET TERMS FOR KSTP 1958 AND KPER 2 TO BUDGET FILE TERMS FROM KSTP 1 AND KPER 2

end timestep


start timestep kper="2" kstp="1959" mode="normal"


 FMI SETTING BUDGET TERMS FOR KSTP 1959 AND KPER 2 TO BUDGET FILE TERMS FROM KSTP 1 AND KPER 2

 FMI SETTING HEAD FOR KSTP 1959 AND KPER 2 TO BINARY FILE HEADS FROM KSTP 1 AND KPER 2

 SFR-1 SETTING BUDGET TERMS FOR KSTP 1959 AND KPER 2 TO BUDGET FILE TERMS FROM KSTP 1 AND KPER 2

end timestep


start timestep kper="2" kstp="1960" mode="normal"


 FMI SETTING BUDGET TERMS FOR KSTP 1960 AND KPER 2 TO BUDGET FILE TERMS FROM KSTP 1 AND KPER 2

 FMI SETTING HEAD FOR KSTP 1960 AND KPER 2 TO BINARY FILE HEADS FROM KSTP 1 AND KPER 2

 SFR-1 SETTING BUDGET TERMS FOR KSTP 1960 AND KPER 2 TO BUDGET FILE TERMS FROM KSTP 1 AND KPER 2

 CONCENTRATION WILL BE SAVED ON UNIT 1024 AT END OF TIME STEP 1960, STRESS PERIOD    2

end timestep


start timestep kper="2" kstp="1961" mode="normal"


 FMI SETTING BUDGET TERMS FOR KSTP 1961 AND KPER 2 TO BUDGET FILE TERMS FROM KSTP 1 AND KPER 2

 FMI SETTING HEAD FOR KSTP 1961 AND KPER 2 TO BINARY FILE HEADS FROM KSTP 1 AND KPER 2

 SFR-1 SETTING BUDGET TERMS FOR KSTP 1961 AND KPER 2 TO BUDGET FILE TERMS FROM KSTP 1 AND KPER 2

end timestep


start timestep kper="2" kstp="1962" mode="normal"


 FMI SETTING BUDGET TERMS FOR KSTP 1962 AND KPER 2 TO BUDGET FILE TERMS FROM KSTP 1 AND KPER 2

 FMI SETTING HEAD FOR KSTP 1962 AND KPER 2 TO BINARY FILE HEADS FROM KSTP 1 AND KPER 2

 SFR-1 SETTING BUDGET TERMS FOR KSTP 1962 AND KPER 2 TO BUDGET FILE TERMS FROM KSTP 1 AND KPER 2

end timestep


start timestep kper="2" kstp="1963" mode="normal"


 FMI SETTING BUDGET TERMS FOR KSTP 1963 AND KPER 2 TO BUDGET FILE TERMS FROM KSTP 1 AND KPER 2

 FMI SETTING HEAD FOR KSTP 1963 AND KPER 2 TO BINARY FILE HEADS FROM KSTP 1 AND KPER 2

 SFR-1 SETTING BUDGET TERMS FOR KSTP 1963 AND KPER 2 TO BUDGET FILE TERMS FROM KSTP 1 AND KPER 2

end timestep


start timestep kper="2" kstp="1964" mode="normal"


 FMI SETTING BUDGET TERMS FOR KSTP 1964 AND KPER 2 TO BUDGET FILE TERMS FROM KSTP 1 AND KPER 2

 FMI SETTING HEAD FOR KSTP 1964 AND KPER 2 TO BINARY FILE HEADS FROM KSTP 1 AND KPER 2

 SFR-1 SETTING BUDGET TERMS FOR KSTP 1964 AND KPER 2 TO BUDGET FILE TERMS FROM KSTP 1 AND KPER 2

end timestep


start timestep kper="2" kstp="1965" mode="normal"


 FMI SETTING BUDGET TERMS FOR KSTP 1965 AND KPER 2 TO BUDGET FILE TERMS FROM KSTP 1 AND KPER 2

 FMI SETTING HEAD FOR KSTP 1965 AND KPER 2 TO BINARY FILE HEADS FROM KSTP 1 AND KPER 2

 SFR-1 SETTING BUDGET TERMS FOR KSTP 1965 AND KPER 2 TO BUDGET FILE TERMS FROM KSTP 1 AND KPER 2

end timestep


start timestep kper="2" kstp="1966" mode="normal"


 FMI SETTING BUDGET TERMS FOR KSTP 1966 AND KPER 2 TO BUDGET FILE TERMS FROM KSTP 1 AND KPER 2

 FMI SETTING HEAD FOR KSTP 1966 AND KPER 2 TO BINARY FILE HEADS FROM KSTP 1 AND KPER 2

 SFR-1 SETTING BUDGET TERMS FOR KSTP 1966 AND KPER 2 TO BUDGET FILE TERMS FROM KSTP 1 AND KPER 2

end timestep


start timestep kper="2" kstp="1967" mode="normal"


 FMI SETTING BUDGET TERMS FOR KSTP 1967 AND KPER 2 TO BUDGET FILE TERMS FROM KSTP 1 AND KPER 2

 FMI SETTING HEAD FOR KSTP 1967 AND KPER 2 TO BINARY FILE HEADS FROM KSTP 1 AND KPER 2

 SFR-1 SETTING BUDGET TERMS FOR KSTP 1967 AND KPER 2 TO BUDGET FILE TERMS FROM KSTP 1 AND KPER 2

end timestep


start timestep kper="2" kstp="1968" mode="normal"


 FMI SETTING BUDGET TERMS FOR KSTP 1968 AND KPER 2 TO BUDGET FILE TERMS FROM KSTP 1 AND KPER 2

 FMI SETTING HEAD FOR KSTP 1968 AND KPER 2 TO BINARY FILE HEADS FROM KSTP 1 AND KPER 2

 SFR-1 SETTING BUDGET TERMS FOR KSTP 1968 AND KPER 2 TO BUDGET FILE TERMS FROM KSTP 1 AND KPER 2

end timestep


start timestep kper="2" kstp="1969" mode="normal"


 FMI SETTING BUDGET TERMS FOR KSTP 1969 AND KPER 2 TO BUDGET FILE TERMS FROM KSTP 1 AND KPER 2

 FMI SETTING HEAD FOR KSTP 1969 AND KPER 2 TO BINARY FILE HEADS FROM KSTP 1 AND KPER 2

 SFR-1 SETTING BUDGET TERMS FOR KSTP 1969 AND KPER 2 TO BUDGET FILE TERMS FROM KSTP 1 AND KPER 2

end timestep


start timestep kper="2" kstp="1970" mode="normal"


 FMI SETTING BUDGET TERMS FOR KSTP 1970 AND KPER 2 TO BUDGET FILE TERMS FROM KSTP 1 AND KPER 2

 FMI SETTING HEAD FOR KSTP 1970 AND KPER 2 TO BINARY FILE HEADS FROM KSTP 1 AND KPER 2

 SFR-1 SETTING BUDGET TERMS FOR KSTP 1970 AND KPER 2 TO BUDGET FILE TERMS FROM KSTP 1 AND KPER 2

 CONCENTRATION WILL BE SAVED ON UNIT 1024 AT END OF TIME STEP 1970, STRESS PERIOD    2

end timestep


start timestep kper="2" kstp="1971" mode="normal"


 FMI SETTING BUDGET TERMS FOR KSTP 1971 AND KPER 2 TO BUDGET FILE TERMS FROM KSTP 1 AND KPER 2

 FMI SETTING HEAD FOR KSTP 1971 AND KPER 2 TO BINARY FILE HEADS FROM KSTP 1 AND KPER 2

 SFR-1 SETTING BUDGET TERMS FOR KSTP 1971 AND KPER 2 TO BUDGET FILE TERMS FROM KSTP 1 AND KPER 2

end timestep


start timestep kper="2" kstp="1972" mode="normal"


 FMI SETTING BUDGET TERMS FOR KSTP 1972 AND KPER 2 TO BUDGET FILE TERMS FROM KSTP 1 AND KPER 2

 FMI SETTING HEAD FOR KSTP 1972 AND KPER 2 TO BINARY FILE HEADS FROM KSTP 1 AND KPER 2

 SFR-1 SETTING BUDGET TERMS FOR KSTP 1972 AND KPER 2 TO BUDGET FILE TERMS FROM KSTP 1 AND KPER 2

end timestep


start timestep kper="2" kstp="1973" mode="normal"


 FMI SETTING BUDGET TERMS FOR KSTP 1973 AND KPER 2 TO BUDGET FILE TERMS FROM KSTP 1 AND KPER 2

 FMI SETTING HEAD FOR KSTP 1973 AND KPER 2 TO BINARY FILE HEADS FROM KSTP 1 AND KPER 2

 SFR-1 SETTING BUDGET TERMS FOR KSTP 1973 AND KPER 2 TO BUDGET FILE TERMS FROM KSTP 1 AND KPER 2

end timestep


start timestep kper="2" kstp="1974" mode="normal"


 FMI SETTING BUDGET TERMS FOR KSTP 1974 AND KPER 2 TO BUDGET FILE TERMS FROM KSTP 1 AND KPER 2

 FMI SETTING HEAD FOR KSTP 1974 AND KPER 2 TO BINARY FILE HEADS FROM KSTP 1 AND KPER 2

 SFR-1 SETTING BUDGET TERMS FOR KSTP 1974 AND KPER 2 TO BUDGET FILE TERMS FROM KSTP 1 AND KPER 2

end timestep


start timestep kper="2" kstp="1975" mode="normal"


 FMI SETTING BUDGET TERMS FOR KSTP 1975 AND KPER 2 TO BUDGET FILE TERMS FROM KSTP 1 AND KPER 2

 FMI SETTING HEAD FOR KSTP 1975 AND KPER 2 TO BINARY FILE HEADS FROM KSTP 1 AND KPER 2

 SFR-1 SETTING BUDGET TERMS FOR KSTP 1975 AND KPER 2 TO BUDGET FILE TERMS FROM KSTP 1 AND KPER 2

end timestep


start timestep kper="2" kstp="1976" mode="normal"


 FMI SETTING BUDGET TERMS FOR KSTP 1976 AND KPER 2 TO BUDGET FILE TERMS FROM KSTP 1 AND KPER 2

 FMI SETTING HEAD FOR KSTP 1976 AND KPER 2 TO BINARY FILE HEADS FROM KSTP 1 AND KPER 2

 SFR-1 SETTING BUDGET TERMS FOR KSTP 1976 AND KPER 2 TO BUDGET FILE TERMS FROM KSTP 1 AND KPER 2

end timestep


start timestep kper="2" kstp="1977" mode="normal"


 FMI SETTING BUDGET TERMS FOR KSTP 1977 AND KPER 2 TO BUDGET FILE TERMS FROM KSTP 1 AND KPER 2

 FMI SETTING HEAD FOR KSTP 1977 AND KPER 2 TO BINARY FILE HEADS FROM KSTP 1 AND KPER 2

 SFR-1 SETTING BUDGET TERMS FOR KSTP 1977 AND KPER 2 TO BUDGET FILE TERMS FROM KSTP 1 AND KPER 2

end timestep


start timestep kper="2" kstp="1978" mode="normal"


 FMI SETTING BUDGET TERMS FOR KSTP 1978 AND KPER 2 TO BUDGET FILE TERMS FROM KSTP 1 AND KPER 2

 FMI SETTING HEAD FOR KSTP 1978 AND KPER 2 TO BINARY FILE HEADS FROM KSTP 1 AND KPER 2

 SFR-1 SETTING BUDGET TERMS FOR KSTP 1978 AND KPER 2 TO BUDGET FILE TERMS FROM KSTP 1 AND KPER 2

end timestep


start timestep kper="2" kstp="1979" mode="normal"


 FMI SETTING BUDGET TERMS FOR KSTP 1979 AND KPER 2 TO BUDGET FILE TERMS FROM KSTP 1 AND KPER 2

 FMI SETTING HEAD FOR KSTP 1979 AND KPER 2 TO BINARY FILE HEADS FROM KSTP 1 AND KPER 2

 SFR-1 SETTING BUDGET TERMS FOR KSTP 1979 AND KPER 2 TO BUDGET FILE TERMS FROM KSTP 1 AND KPER 2

end timestep


start timestep kper="2" kstp="1980" mode="normal"


 FMI SETTING BUDGET TERMS FOR KSTP 1980 AND KPER 2 TO BUDGET FILE TERMS FROM KSTP 1 AND KPER 2

 FMI SETTING HEAD FOR KSTP 1980 AND KPER 2 TO BINARY FILE HEADS FROM KSTP 1 AND KPER 2

 SFR-1 SETTING BUDGET TERMS FOR KSTP 1980 AND KPER 2 TO BUDGET FILE TERMS FROM KSTP 1 AND KPER 2

 CONCENTRATION WILL BE SAVED ON UNIT 1024 AT END OF TIME STEP 1980, STRESS PERIOD    2

end timestep


start timestep kper="2" kstp="1981" mode="normal"


 FMI SETTING BUDGET TERMS FOR KSTP 1981 AND KPER 2 TO BUDGET FILE TERMS FROM KSTP 1 AND KPER 2

 FMI SETTING HEAD FOR KSTP 1981 AND KPER 2 TO BINARY FILE HEADS FROM KSTP 1 AND KPER 2

 SFR-1 SETTING BUDGET TERMS FOR KSTP 1981 AND KPER 2 TO BUDGET FILE TERMS FROM KSTP 1 AND KPER 2

end timestep


start timestep kper="2" kstp="1982" mode="normal"


 FMI SETTING BUDGET TERMS FOR KSTP 1982 AND KPER 2 TO BUDGET FILE TERMS FROM KSTP 1 AND KPER 2

 FMI SETTING HEAD FOR KSTP 1982 AND KPER 2 TO BINARY FILE HEADS FROM KSTP 1 AND KPER 2

 SFR-1 SETTING BUDGET TERMS FOR KSTP 1982 AND KPER 2 TO BUDGET FILE TERMS FROM KSTP 1 AND KPER 2

end timestep


start timestep kper="2" kstp="1983" mode="normal"


 FMI SETTING BUDGET TERMS FOR KSTP 1983 AND KPER 2 TO BUDGET FILE TERMS FROM KSTP 1 AND KPER 2

 FMI SETTING HEAD FOR KSTP 1983 AND KPER 2 TO BINARY FILE HEADS FROM KSTP 1 AND KPER 2

 SFR-1 SETTING BUDGET TERMS FOR KSTP 1983 AND KPER 2 TO BUDGET FILE TERMS FROM KSTP 1 AND KPER 2

end timestep


start timestep kper="2" kstp="1984" mode="normal"


 FMI SETTING BUDGET TERMS FOR KSTP 1984 AND KPER 2 TO BUDGET FILE TERMS FROM KSTP 1 AND KPER 2

 FMI SETTING HEAD FOR KSTP 1984 AND KPER 2 TO BINARY FILE HEADS FROM KSTP 1 AND KPER 2

 SFR-1 SETTING BUDGET TERMS FOR KSTP 1984 AND KPER 2 TO BUDGET FILE TERMS FROM KSTP 1 AND KPER 2

end timestep


start timestep kper="2" kstp="1985" mode="normal"


 FMI SETTING BUDGET TERMS FOR KSTP 1985 AND KPER 2 TO BUDGET FILE TERMS FROM KSTP 1 AND KPER 2

 FMI SETTING HEAD FOR KSTP 1985 AND KPER 2 TO BINARY FILE HEADS FROM KSTP 1 AND KPER 2

 SFR-1 SETTING BUDGET TERMS FOR KSTP 1985 AND KPER 2 TO BUDGET FILE TERMS FROM KSTP 1 AND KPER 2

end timestep


start timestep kper="2" kstp="1986" mode="normal"


 FMI SETTING BUDGET TERMS FOR KSTP 1986 AND KPER 2 TO BUDGET FILE TERMS FROM KSTP 1 AND KPER 2

 FMI SETTING HEAD FOR KSTP 1986 AND KPER 2 TO BINARY FILE HEADS FROM KSTP 1 AND KPER 2

 SFR-1 SETTING BUDGET TERMS FOR KSTP 1986 AND KPER 2 TO BUDGET FILE TERMS FROM KSTP 1 AND KPER 2

end timestep


start timestep kper="2" kstp="1987" mode="normal"


 FMI SETTING BUDGET TERMS FOR KSTP 1987 AND KPER 2 TO BUDGET FILE TERMS FROM KSTP 1 AND KPER 2

 FMI SETTING HEAD FOR KSTP 1987 AND KPER 2 TO BINARY FILE HEADS FROM KSTP 1 AND KPER 2

 SFR-1 SETTING BUDGET TERMS FOR KSTP 1987 AND KPER 2 TO BUDGET FILE TERMS FROM KSTP 1 AND KPER 2

end timestep


start timestep kper="2" kstp="1988" mode="normal"


 FMI SETTING BUDGET TERMS FOR KSTP 1988 AND KPER 2 TO BUDGET FILE TERMS FROM KSTP 1 AND KPER 2

 FMI SETTING HEAD FOR KSTP 1988 AND KPER 2 TO BINARY FILE HEADS FROM KSTP 1 AND KPER 2

 SFR-1 SETTING BUDGET TERMS FOR KSTP 1988 AND KPER 2 TO BUDGET FILE TERMS FROM KSTP 1 AND KPER 2

end timestep


start timestep kper="2" kstp="1989" mode="normal"


 FMI SETTING BUDGET TERMS FOR KSTP 1989 AND KPER 2 TO BUDGET FILE TERMS FROM KSTP 1 AND KPER 2

 FMI SETTING HEAD FOR KSTP 1989 AND KPER 2 TO BINARY FILE HEADS FROM KSTP 1 AND KPER 2

 SFR-1 SETTING BUDGET TERMS FOR KSTP 1989 AND KPER 2 TO BUDGET FILE TERMS FROM KSTP 1 AND KPER 2

end timestep


start timestep kper="2" kstp="1990" mode="normal"


 FMI SETTING BUDGET TERMS FOR KSTP 1990 AND KPER 2 TO BUDGET FILE TERMS FROM KSTP 1 AND KPER 2

 FMI SETTING HEAD FOR KSTP 1990 AND KPER 2 TO BINARY FILE HEADS FROM KSTP 1 AND KPER 2

 SFR-1 SETTING BUDGET TERMS FOR KSTP 1990 AND KPER 2 TO BUDGET FILE TERMS FROM KSTP 1 AND KPER 2

 CONCENTRATION WILL BE SAVED ON UNIT 1024 AT END OF TIME STEP 1990, STRESS PERIOD    2

end timestep


start timestep kper="2" kstp="1991" mode="normal"


 FMI SETTING BUDGET TERMS FOR KSTP 1991 AND KPER 2 TO BUDGET FILE TERMS FROM KSTP 1 AND KPER 2

 FMI SETTING HEAD FOR KSTP 1991 AND KPER 2 TO BINARY FILE HEADS FROM KSTP 1 AND KPER 2

 SFR-1 SETTING BUDGET TERMS FOR KSTP 1991 AND KPER 2 TO BUDGET FILE TERMS FROM KSTP 1 AND KPER 2

end timestep


start timestep kper="2" kstp="1992" mode="normal"


 FMI SETTING BUDGET TERMS FOR KSTP 1992 AND KPER 2 TO BUDGET FILE TERMS FROM KSTP 1 AND KPER 2

 FMI SETTING HEAD FOR KSTP 1992 AND KPER 2 TO BINARY FILE HEADS FROM KSTP 1 AND KPER 2

 SFR-1 SETTING BUDGET TERMS FOR KSTP 1992 AND KPER 2 TO BUDGET FILE TERMS FROM KSTP 1 AND KPER 2

end timestep


start timestep kper="2" kstp="1993" mode="normal"


 FMI SETTING BUDGET TERMS FOR KSTP 1993 AND KPER 2 TO BUDGET FILE TERMS FROM KSTP 1 AND KPER 2

 FMI SETTING HEAD FOR KSTP 1993 AND KPER 2 TO BINARY FILE HEADS FROM KSTP 1 AND KPER 2

 SFR-1 SETTING BUDGET TERMS FOR KSTP 1993 AND KPER 2 TO BUDGET FILE TERMS FROM KSTP 1 AND KPER 2

end timestep


start timestep kper="2" kstp="1994" mode="normal"


 FMI SETTING BUDGET TERMS FOR KSTP 1994 AND KPER 2 TO BUDGET FILE TERMS FROM KSTP 1 AND KPER 2

 FMI SETTING HEAD FOR KSTP 1994 AND KPER 2 TO BINARY FILE HEADS FROM KSTP 1 AND KPER 2

 SFR-1 SETTING BUDGET TERMS FOR KSTP 1994 AND KPER 2 TO BUDGET FILE TERMS FROM KSTP 1 AND KPER 2

end timestep


start timestep kper="2" kstp="1995" mode="normal"


 FMI SETTING BUDGET TERMS FOR KSTP 1995 AND KPER 2 TO BUDGET FILE TERMS FROM KSTP 1 AND KPER 2

 FMI SETTING HEAD FOR KSTP 1995 AND KPER 2 TO BINARY FILE HEADS FROM KSTP 1 AND KPER 2

 SFR-1 SETTING BUDGET TERMS FOR KSTP 1995 AND KPER 2 TO BUDGET FILE TERMS FROM KSTP 1 AND KPER 2

end timestep


start timestep kper="2" kstp="1996" mode="normal"


 FMI SETTING BUDGET TERMS FOR KSTP 1996 AND KPER 2 TO BUDGET FILE TERMS FROM KSTP 1 AND KPER 2

 FMI SETTING HEAD FOR KSTP 1996 AND KPER 2 TO BINARY FILE HEADS FROM KSTP 1 AND KPER 2

 SFR-1 SETTING BUDGET TERMS FOR KSTP 1996 AND KPER 2 TO BUDGET FILE TERMS FROM KSTP 1 AND KPER 2

end timestep


start timestep kper="2" kstp="1997" mode="normal"


 FMI SETTING BUDGET TERMS FOR KSTP 1997 AND KPER 2 TO BUDGET FILE TERMS FROM KSTP 1 AND KPER 2

 FMI SETTING HEAD FOR KSTP 1997 AND KPER 2 TO BINARY FILE HEADS FROM KSTP 1 AND KPER 2

 SFR-1 SETTING BUDGET TERMS FOR KSTP 1997 AND KPER 2 TO BUDGET FILE TERMS FROM KSTP 1 AND KPER 2

end timestep


start timestep kper="2" kstp="1998" mode="normal"


 FMI SETTING BUDGET TERMS FOR KSTP 1998 AND KPER 2 TO BUDGET FILE TERMS FROM KSTP 1 AND KPER 2

 FMI SETTING HEAD FOR KSTP 1998 AND KPER 2 TO BINARY FILE HEADS FROM KSTP 1 AND KPER 2

 SFR-1 SETTING BUDGET TERMS FOR KSTP 1998 AND KPER 2 TO BUDGET FILE TERMS FROM KSTP 1 AND KPER 2

end timestep


start timestep kper="2" kstp="1999" mode="normal"


 FMI SETTING BUDGET TERMS FOR KSTP 1999 AND KPER 2 TO BUDGET FILE TERMS FROM KSTP 1 AND KPER 2

 FMI SETTING HEAD FOR KSTP 1999 AND KPER 2 TO BINARY FILE HEADS FROM KSTP 1 AND KPER 2

 SFR-1 SETTING BUDGET TERMS FOR KSTP 1999 AND KPER 2 TO BUDGET FILE TERMS FROM KSTP 1 AND KPER 2

end timestep


start timestep kper="2" kstp="2000" mode="normal"


 FMI SETTING BUDGET TERMS FOR KSTP 2000 AND KPER 2 TO BUDGET FILE TERMS FROM KSTP 1 AND KPER 2

 FMI SETTING HEAD FOR KSTP 2000 AND KPER 2 TO BINARY FILE HEADS FROM KSTP 1 AND KPER 2

 SFR-1 SETTING BUDGET TERMS FOR KSTP 2000 AND KPER 2 TO BUDGET FILE TERMS FROM KSTP 1 AND KPER 2

 CONCENTRATION WILL BE SAVED ON UNIT 1024 AT END OF TIME STEP 2000, STRESS PERIOD    2

end timestep


start timestep kper="2" kstp="2001" mode="normal"


 FMI SETTING BUDGET TERMS FOR KSTP 2001 AND KPER 2 TO BUDGET FILE TERMS FROM KSTP 1 AND KPER 2

 FMI SETTING HEAD FOR KSTP 2001 AND KPER 2 TO BINARY FILE HEADS FROM KSTP 1 AND KPER 2

 SFR-1 SETTING BUDGET TERMS FOR KSTP 2001 AND KPER 2 TO BUDGET FILE TERMS FROM KSTP 1 AND KPER 2

end timestep


start timestep kper="2" kstp="2002" mode="normal"


 FMI SETTING BUDGET TERMS FOR KSTP 2002 AND KPER 2 TO BUDGET FILE TERMS FROM KSTP 1 AND KPER 2

 FMI SETTING HEAD FOR KSTP 2002 AND KPER 2 TO BINARY FILE HEADS FROM KSTP 1 AND KPER 2

 SFR-1 SETTING BUDGET TERMS FOR KSTP 2002 AND KPER 2 TO BUDGET FILE TERMS FROM KSTP 1 AND KPER 2

end timestep


start timestep kper="2" kstp="2003" mode="normal"


 FMI SETTING BUDGET TERMS FOR KSTP 2003 AND KPER 2 TO BUDGET FILE TERMS FROM KSTP 1 AND KPER 2

 FMI SETTING HEAD FOR KSTP 2003 AND KPER 2 TO BINARY FILE HEADS FROM KSTP 1 AND KPER 2

 SFR-1 SETTING BUDGET TERMS FOR KSTP 2003 AND KPER 2 TO BUDGET FILE TERMS FROM KSTP 1 AND KPER 2

end timestep


start timestep kper="2" kstp="2004" mode="normal"


 FMI SETTING BUDGET TERMS FOR KSTP 2004 AND KPER 2 TO BUDGET FILE TERMS FROM KSTP 1 AND KPER 2

 FMI SETTING HEAD FOR KSTP 2004 AND KPER 2 TO BINARY FILE HEADS FROM KSTP 1 AND KPER 2

 SFR-1 SETTING BUDGET TERMS FOR KSTP 2004 AND KPER 2 TO BUDGET FILE TERMS FROM KSTP 1 AND KPER 2

end timestep


start timestep kper="2" kstp="2005" mode="normal"


 FMI SETTING BUDGET TERMS FOR KSTP 2005 AND KPER 2 TO BUDGET FILE TERMS FROM KSTP 1 AND KPER 2

 FMI SETTING HEAD FOR KSTP 2005 AND KPER 2 TO BINARY FILE HEADS FROM KSTP 1 AND KPER 2

 SFR-1 SETTING BUDGET TERMS FOR KSTP 2005 AND KPER 2 TO BUDGET FILE TERMS FROM KSTP 1 AND KPER 2

end timestep


start timestep kper="2" kstp="2006" mode="normal"


 FMI SETTING BUDGET TERMS FOR KSTP 2006 AND KPER 2 TO BUDGET FILE TERMS FROM KSTP 1 AND KPER 2

 FMI SETTING HEAD FOR KSTP 2006 AND KPER 2 TO BINARY FILE HEADS FROM KSTP 1 AND KPER 2

 SFR-1 SETTING BUDGET TERMS FOR KSTP 2006 AND KPER 2 TO BUDGET FILE TERMS FROM KSTP 1 AND KPER 2

end timestep


start timestep kper="2" kstp="2007" mode="normal"


 FMI SETTING BUDGET TERMS FOR KSTP 2007 AND KPER 2 TO BUDGET FILE TERMS FROM KSTP 1 AND KPER 2

 FMI SETTING HEAD FOR KSTP 2007 AND KPER 2 TO BINARY FILE HEADS FROM KSTP 1 AND KPER 2

 SFR-1 SETTING BUDGET TERMS FOR KSTP 2007 AND KPER 2 TO BUDGET FILE TERMS FROM KSTP 1 AND KPER 2

end timestep


start timestep kper="2" kstp="2008" mode="normal"


 FMI SETTING BUDGET TERMS FOR KSTP 2008 AND KPER 2 TO BUDGET FILE TERMS FROM KSTP 1 AND KPER 2

 FMI SETTING HEAD FOR KSTP 2008 AND KPER 2 TO BINARY FILE HEADS FROM KSTP 1 AND KPER 2

 SFR-1 SETTING BUDGET TERMS FOR KSTP 2008 AND KPER 2 TO BUDGET FILE TERMS FROM KSTP 1 AND KPER 2

end timestep


start timestep kper="2" kstp="2009" mode="normal"


 FMI SETTING BUDGET TERMS FOR KSTP 2009 AND KPER 2 TO BUDGET FILE TERMS FROM KSTP 1 AND KPER 2

 FMI SETTING HEAD FOR KSTP 2009 AND KPER 2 TO BINARY FILE HEADS FROM KSTP 1 AND KPER 2

 SFR-1 SETTING BUDGET TERMS FOR KSTP 2009 AND KPER 2 TO BUDGET FILE TERMS FROM KSTP 1 AND KPER 2

end timestep


start timestep kper="2" kstp="2010" mode="normal"


 FMI SETTING BUDGET TERMS FOR KSTP 2010 AND KPER 2 TO BUDGET FILE TERMS FROM KSTP 1 AND KPER 2

 FMI SETTING HEAD FOR KSTP 2010 AND KPER 2 TO BINARY FILE HEADS FROM KSTP 1 AND KPER 2

 SFR-1 SETTING BUDGET TERMS FOR KSTP 2010 AND KPER 2 TO BUDGET FILE TERMS FROM KSTP 1 AND KPER 2

 CONCENTRATION WILL BE SAVED ON UNIT 1024 AT END OF TIME STEP 2010, STRESS PERIOD    2

end timestep


start timestep kper="2" kstp="2011" mode="normal"


 FMI SETTING BUDGET TERMS FOR KSTP 2011 AND KPER 2 TO BUDGET FILE TERMS FROM KSTP 1 AND KPER 2

 FMI SETTING HEAD FOR KSTP 2011 AND KPER 2 TO BINARY FILE HEADS FROM KSTP 1 AND KPER 2

 SFR-1 SETTING BUDGET TERMS FOR KSTP 2011 AND KPER 2 TO BUDGET FILE TERMS FROM KSTP 1 AND KPER 2

end timestep


start timestep kper="2" kstp="2012" mode="normal"


 FMI SETTING BUDGET TERMS FOR KSTP 2012 AND KPER 2 TO BUDGET FILE TERMS FROM KSTP 1 AND KPER 2

 FMI SETTING HEAD FOR KSTP 2012 AND KPER 2 TO BINARY FILE HEADS FROM KSTP 1 AND KPER 2

 SFR-1 SETTING BUDGET TERMS FOR KSTP 2012 AND KPER 2 TO BUDGET FILE TERMS FROM KSTP 1 AND KPER 2

end timestep


start timestep kper="2" kstp="2013" mode="normal"


 FMI SETTING BUDGET TERMS FOR KSTP 2013 AND KPER 2 TO BUDGET FILE TERMS FROM KSTP 1 AND KPER 2

 FMI SETTING HEAD FOR KSTP 2013 AND KPER 2 TO BINARY FILE HEADS FROM KSTP 1 AND KPER 2

 SFR-1 SETTING BUDGET TERMS FOR KSTP 2013 AND KPER 2 TO BUDGET FILE TERMS FROM KSTP 1 AND KPER 2

end timestep


start timestep kper="2" kstp="2014" mode="normal"


 FMI SETTING BUDGET TERMS FOR KSTP 2014 AND KPER 2 TO BUDGET FILE TERMS FROM KSTP 1 AND KPER 2

 FMI SETTING HEAD FOR KSTP 2014 AND KPER 2 TO BINARY FILE HEADS FROM KSTP 1 AND KPER 2

 SFR-1 SETTING BUDGET TERMS FOR KSTP 2014 AND KPER 2 TO BUDGET FILE TERMS FROM KSTP 1 AND KPER 2

end timestep


start timestep kper="2" kstp="2015" mode="normal"


 FMI SETTING BUDGET TERMS FOR KSTP 2015 AND KPER 2 TO BUDGET FILE TERMS FROM KSTP 1 AND KPER 2

 FMI SETTING HEAD FOR KSTP 2015 AND KPER 2 TO BINARY FILE HEADS FROM KSTP 1 AND KPER 2

 SFR-1 SETTING BUDGET TERMS FOR KSTP 2015 AND KPER 2 TO BUDGET FILE TERMS FROM KSTP 1 AND KPER 2

end timestep


start timestep kper="2" kstp="2016" mode="normal"


 FMI SETTING BUDGET TERMS FOR KSTP 2016 AND KPER 2 TO BUDGET FILE TERMS FROM KSTP 1 AND KPER 2

 FMI SETTING HEAD FOR KSTP 2016 AND KPER 2 TO BINARY FILE HEADS FROM KSTP 1 AND KPER 2

 SFR-1 SETTING BUDGET TERMS FOR KSTP 2016 AND KPER 2 TO BUDGET FILE TERMS FROM KSTP 1 AND KPER 2

end timestep


start timestep kper="2" kstp="2017" mode="normal"


 FMI SETTING BUDGET TERMS FOR KSTP 2017 AND KPER 2 TO BUDGET FILE TERMS FROM KSTP 1 AND KPER 2

 FMI SETTING HEAD FOR KSTP 2017 AND KPER 2 TO BINARY FILE HEADS FROM KSTP 1 AND KPER 2

 SFR-1 SETTING BUDGET TERMS FOR KSTP 2017 AND KPER 2 TO BUDGET FILE TERMS FROM KSTP 1 AND KPER 2

end timestep


start timestep kper="2" kstp="2018" mode="normal"


 FMI SETTING BUDGET TERMS FOR KSTP 2018 AND KPER 2 TO BUDGET FILE TERMS FROM KSTP 1 AND KPER 2

 FMI SETTING HEAD FOR KSTP 2018 AND KPER 2 TO BINARY FILE HEADS FROM KSTP 1 AND KPER 2

 SFR-1 SETTING BUDGET TERMS FOR KSTP 2018 AND KPER 2 TO BUDGET FILE TERMS FROM KSTP 1 AND KPER 2

end timestep


start timestep kper="2" kstp="2019" mode="normal"


 FMI SETTING BUDGET TERMS FOR KSTP 2019 AND KPER 2 TO BUDGET FILE TERMS FROM KSTP 1 AND KPER 2

 FMI SETTING HEAD FOR KSTP 2019 AND KPER 2 TO BINARY FILE HEADS FROM KSTP 1 AND KPER 2

 SFR-1 SETTING BUDGET TERMS FOR KSTP 2019 AND KPER 2 TO BUDGET FILE TERMS FROM KSTP 1 AND KPER 2

end timestep


start timestep kper="2" kstp="2020" mode="normal"


 FMI SETTING BUDGET TERMS FOR KSTP 2020 AND KPER 2 TO BUDGET FILE TERMS FROM KSTP 1 AND KPER 2

 FMI SETTING HEAD FOR KSTP 2020 AND KPER 2 TO BINARY FILE HEADS FROM KSTP 1 AND KPER 2

 SFR-1 SETTING BUDGET TERMS FOR KSTP 2020 AND KPER 2 TO BUDGET FILE TERMS FROM KSTP 1 AND KPER 2

 CONCENTRATION WILL BE SAVED ON UNIT 1024 AT END OF TIME STEP 2020, STRESS PERIOD    2

end timestep


start timestep kper="2" kstp="2021" mode="normal"


 FMI SETTING BUDGET TERMS FOR KSTP 2021 AND KPER 2 TO BUDGET FILE TERMS FROM KSTP 1 AND KPER 2

 FMI SETTING HEAD FOR KSTP 2021 AND KPER 2 TO BINARY FILE HEADS FROM KSTP 1 AND KPER 2

 SFR-1 SETTING BUDGET TERMS FOR KSTP 2021 AND KPER 2 TO BUDGET FILE TERMS FROM KSTP 1 AND KPER 2

end timestep


start timestep kper="2" kstp="2022" mode="normal"


 FMI SETTING BUDGET TERMS FOR KSTP 2022 AND KPER 2 TO BUDGET FILE TERMS FROM KSTP 1 AND KPER 2

 FMI SETTING HEAD FOR KSTP 2022 AND KPER 2 TO BINARY FILE HEADS FROM KSTP 1 AND KPER 2

 SFR-1 SETTING BUDGET TERMS FOR KSTP 2022 AND KPER 2 TO BUDGET FILE TERMS FROM KSTP 1 AND KPER 2

end timestep


start timestep kper="2" kstp="2023" mode="normal"


 FMI SETTING BUDGET TERMS FOR KSTP 2023 AND KPER 2 TO BUDGET FILE TERMS FROM KSTP 1 AND KPER 2

 FMI SETTING HEAD FOR KSTP 2023 AND KPER 2 TO BINARY FILE HEADS FROM KSTP 1 AND KPER 2

 SFR-1 SETTING BUDGET TERMS FOR KSTP 2023 AND KPER 2 TO BUDGET FILE TERMS FROM KSTP 1 AND KPER 2

end timestep


start timestep kper="2" kstp="2024" mode="normal"


 FMI SETTING BUDGET TERMS FOR KSTP 2024 AND KPER 2 TO BUDGET FILE TERMS FROM KSTP 1 AND KPER 2

 FMI SETTING HEAD FOR KSTP 2024 AND KPER 2 TO BINARY FILE HEADS FROM KSTP 1 AND KPER 2

 SFR-1 SETTING BUDGET TERMS FOR KSTP 2024 AND KPER 2 TO BUDGET FILE TERMS FROM KSTP 1 AND KPER 2

end timestep


start timestep kper="2" kstp="2025" mode="normal"


 FMI SETTING BUDGET TERMS FOR KSTP 2025 AND KPER 2 TO BUDGET FILE TERMS FROM KSTP 1 AND KPER 2

 FMI SETTING HEAD FOR KSTP 2025 AND KPER 2 TO BINARY FILE HEADS FROM KSTP 1 AND KPER 2

 SFR-1 SETTING BUDGET TERMS FOR KSTP 2025 AND KPER 2 TO BUDGET FILE TERMS FROM KSTP 1 AND KPER 2

end timestep


start timestep kper="2" kstp="2026" mode="normal"


 FMI SETTING BUDGET TERMS FOR KSTP 2026 AND KPER 2 TO BUDGET FILE TERMS FROM KSTP 1 AND KPER 2

 FMI SETTING HEAD FOR KSTP 2026 AND KPER 2 TO BINARY FILE HEADS FROM KSTP 1 AND KPER 2

 SFR-1 SETTING BUDGET TERMS FOR KSTP 2026 AND KPER 2 TO BUDGET FILE TERMS FROM KSTP 1 AND KPER 2

end timestep


start timestep kper="2" kstp="2027" mode="normal"


 FMI SETTING BUDGET TERMS FOR KSTP 2027 AND KPER 2 TO BUDGET FILE TERMS FROM KSTP 1 AND KPER 2

 FMI SETTING HEAD FOR KSTP 2027 AND KPER 2 TO BINARY FILE HEADS FROM KSTP 1 AND KPER 2

 SFR-1 SETTING BUDGET TERMS FOR KSTP 2027 AND KPER 2 TO BUDGET FILE TERMS FROM KSTP 1 AND KPER 2

end timestep


start timestep kper="2" kstp="2028" mode="normal"


 FMI SETTING BUDGET TERMS FOR KSTP 2028 AND KPER 2 TO BUDGET FILE TERMS FROM KSTP 1 AND KPER 2

 FMI SETTING HEAD FOR KSTP 2028 AND KPER 2 TO BINARY FILE HEADS FROM KSTP 1 AND KPER 2

 SFR-1 SETTING BUDGET TERMS FOR KSTP 2028 AND KPER 2 TO BUDGET FILE TERMS FROM KSTP 1 AND KPER 2

end timestep


start timestep kper="2" kstp="2029" mode="normal"


 FMI SETTING BUDGET TERMS FOR KSTP 2029 AND KPER 2 TO BUDGET FILE TERMS FROM KSTP 1 AND KPER 2

 FMI SETTING HEAD FOR KSTP 2029 AND KPER 2 TO BINARY FILE HEADS FROM KSTP 1 AND KPER 2

 SFR-1 SETTING BUDGET TERMS FOR KSTP 2029 AND KPER 2 TO BUDGET FILE TERMS FROM KSTP 1 AND KPER 2

end timestep


start timestep kper="2" kstp="2030" mode="normal"


 FMI SETTING BUDGET TERMS FOR KSTP 2030 AND KPER 2 TO BUDGET FILE TERMS FROM KSTP 1 AND KPER 2

 FMI SETTING HEAD FOR KSTP 2030 AND KPER 2 TO BINARY FILE HEADS FROM KSTP 1 AND KPER 2

 SFR-1 SETTING BUDGET TERMS FOR KSTP 2030 AND KPER 2 TO BUDGET FILE TERMS FROM KSTP 1 AND KPER 2

 CONCENTRATION WILL BE SAVED ON UNIT 1024 AT END OF TIME STEP 2030, STRESS PERIOD    2

end timestep


start timestep kper="2" kstp="2031" mode="normal"


 FMI SETTING BUDGET TERMS FOR KSTP 2031 AND KPER 2 TO BUDGET FILE TERMS FROM KSTP 1 AND KPER 2

 FMI SETTING HEAD FOR KSTP 2031 AND KPER 2 TO BINARY FILE HEADS FROM KSTP 1 AND KPER 2

 SFR-1 SETTING BUDGET TERMS FOR KSTP 2031 AND KPER 2 TO BUDGET FILE TERMS FROM KSTP 1 AND KPER 2

end timestep


start timestep kper="2" kstp="2032" mode="normal"


 FMI SETTING BUDGET TERMS FOR KSTP 2032 AND KPER 2 TO BUDGET FILE TERMS FROM KSTP 1 AND KPER 2

 FMI SETTING HEAD FOR KSTP 2032 AND KPER 2 TO BINARY FILE HEADS FROM KSTP 1 AND KPER 2

 SFR-1 SETTING BUDGET TERMS FOR KSTP 2032 AND KPER 2 TO BUDGET FILE TERMS FROM KSTP 1 AND KPER 2

end timestep


start timestep kper="2" kstp="2033" mode="normal"


 FMI SETTING BUDGET TERMS FOR KSTP 2033 AND KPER 2 TO BUDGET FILE TERMS FROM KSTP 1 AND KPER 2

 FMI SETTING HEAD FOR KSTP 2033 AND KPER 2 TO BINARY FILE HEADS FROM KSTP 1 AND KPER 2

 SFR-1 SETTING BUDGET TERMS FOR KSTP 2033 AND KPER 2 TO BUDGET FILE TERMS FROM KSTP 1 AND KPER 2

end timestep


start timestep kper="2" kstp="2034" mode="normal"


 FMI SETTING BUDGET TERMS FOR KSTP 2034 AND KPER 2 TO BUDGET FILE TERMS FROM KSTP 1 AND KPER 2

 FMI SETTING HEAD FOR KSTP 2034 AND KPER 2 TO BINARY FILE HEADS FROM KSTP 1 AND KPER 2

 SFR-1 SETTING BUDGET TERMS FOR KSTP 2034 AND KPER 2 TO BUDGET FILE TERMS FROM KSTP 1 AND KPER 2

end timestep


start timestep kper="2" kstp="2035" mode="normal"


 FMI SETTING BUDGET TERMS FOR KSTP 2035 AND KPER 2 TO BUDGET FILE TERMS FROM KSTP 1 AND KPER 2

 FMI SETTING HEAD FOR KSTP 2035 AND KPER 2 TO BINARY FILE HEADS FROM KSTP 1 AND KPER 2

 SFR-1 SETTING BUDGET TERMS FOR KSTP 2035 AND KPER 2 TO BUDGET FILE TERMS FROM KSTP 1 AND KPER 2

end timestep


start timestep kper="2" kstp="2036" mode="normal"


 FMI SETTING BUDGET TERMS FOR KSTP 2036 AND KPER 2 TO BUDGET FILE TERMS FROM KSTP 1 AND KPER 2

 FMI SETTING HEAD FOR KSTP 2036 AND KPER 2 TO BINARY FILE HEADS FROM KSTP 1 AND KPER 2

 SFR-1 SETTING BUDGET TERMS FOR KSTP 2036 AND KPER 2 TO BUDGET FILE TERMS FROM KSTP 1 AND KPER 2

end timestep


start timestep kper="2" kstp="2037" mode="normal"


 FMI SETTING BUDGET TERMS FOR KSTP 2037 AND KPER 2 TO BUDGET FILE TERMS FROM KSTP 1 AND KPER 2

 FMI SETTING HEAD FOR KSTP 2037 AND KPER 2 TO BINARY FILE HEADS FROM KSTP 1 AND KPER 2

 SFR-1 SETTING BUDGET TERMS FOR KSTP 2037 AND KPER 2 TO BUDGET FILE TERMS FROM KSTP 1 AND KPER 2

end timestep


start timestep kper="2" kstp="2038" mode="normal"


 FMI SETTING BUDGET TERMS FOR KSTP 2038 AND KPER 2 TO BUDGET FILE TERMS FROM KSTP 1 AND KPER 2

 FMI SETTING HEAD FOR KSTP 2038 AND KPER 2 TO BINARY FILE HEADS FROM KSTP 1 AND KPER 2

 SFR-1 SETTING BUDGET TERMS FOR KSTP 2038 AND KPER 2 TO BUDGET FILE TERMS FROM KSTP 1 AND KPER 2

end timestep


start timestep kper="2" kstp="2039" mode="normal"


 FMI SETTING BUDGET TERMS FOR KSTP 2039 AND KPER 2 TO BUDGET FILE TERMS FROM KSTP 1 AND KPER 2

 FMI SETTING HEAD FOR KSTP 2039 AND KPER 2 TO BINARY FILE HEADS FROM KSTP 1 AND KPER 2

 SFR-1 SETTING BUDGET TERMS FOR KSTP 2039 AND KPER 2 TO BUDGET FILE TERMS FROM KSTP 1 AND KPER 2

end timestep


start timestep kper="2" kstp="2040" mode="normal"


 FMI SETTING BUDGET TERMS FOR KSTP 2040 AND KPER 2 TO BUDGET FILE TERMS FROM KSTP 1 AND KPER 2

 FMI SETTING HEAD FOR KSTP 2040 AND KPER 2 TO BINARY FILE HEADS FROM KSTP 1 AND KPER 2

 SFR-1 SETTING BUDGET TERMS FOR KSTP 2040 AND KPER 2 TO BUDGET FILE TERMS FROM KSTP 1 AND KPER 2

 CONCENTRATION WILL BE SAVED ON UNIT 1024 AT END OF TIME STEP 2040, STRESS PERIOD    2

end timestep


start timestep kper="2" kstp="2041" mode="normal"


 FMI SETTING BUDGET TERMS FOR KSTP 2041 AND KPER 2 TO BUDGET FILE TERMS FROM KSTP 1 AND KPER 2

 FMI SETTING HEAD FOR KSTP 2041 AND KPER 2 TO BINARY FILE HEADS FROM KSTP 1 AND KPER 2

 SFR-1 SETTING BUDGET TERMS FOR KSTP 2041 AND KPER 2 TO BUDGET FILE TERMS FROM KSTP 1 AND KPER 2

end timestep


start timestep kper="2" kstp="2042" mode="normal"


 FMI SETTING BUDGET TERMS FOR KSTP 2042 AND KPER 2 TO BUDGET FILE TERMS FROM KSTP 1 AND KPER 2

 FMI SETTING HEAD FOR KSTP 2042 AND KPER 2 TO BINARY FILE HEADS FROM KSTP 1 AND KPER 2

 SFR-1 SETTING BUDGET TERMS FOR KSTP 2042 AND KPER 2 TO BUDGET FILE TERMS FROM KSTP 1 AND KPER 2

end timestep


start timestep kper="2" kstp="2043" mode="normal"


 FMI SETTING BUDGET TERMS FOR KSTP 2043 AND KPER 2 TO BUDGET FILE TERMS FROM KSTP 1 AND KPER 2

 FMI SETTING HEAD FOR KSTP 2043 AND KPER 2 TO BINARY FILE HEADS FROM KSTP 1 AND KPER 2

 SFR-1 SETTING BUDGET TERMS FOR KSTP 2043 AND KPER 2 TO BUDGET FILE TERMS FROM KSTP 1 AND KPER 2

end timestep


start timestep kper="2" kstp="2044" mode="normal"


 FMI SETTING BUDGET TERMS FOR KSTP 2044 AND KPER 2 TO BUDGET FILE TERMS FROM KSTP 1 AND KPER 2

 FMI SETTING HEAD FOR KSTP 2044 AND KPER 2 TO BINARY FILE HEADS FROM KSTP 1 AND KPER 2

 SFR-1 SETTING BUDGET TERMS FOR KSTP 2044 AND KPER 2 TO BUDGET FILE TERMS FROM KSTP 1 AND KPER 2

end timestep


start timestep kper="2" kstp="2045" mode="normal"


 FMI SETTING BUDGET TERMS FOR KSTP 2045 AND KPER 2 TO BUDGET FILE TERMS FROM KSTP 1 AND KPER 2

 FMI SETTING HEAD FOR KSTP 2045 AND KPER 2 TO BINARY FILE HEADS FROM KSTP 1 AND KPER 2

 SFR-1 SETTING BUDGET TERMS FOR KSTP 2045 AND KPER 2 TO BUDGET FILE TERMS FROM KSTP 1 AND KPER 2

end timestep


start timestep kper="2" kstp="2046" mode="normal"


 FMI SETTING BUDGET TERMS FOR KSTP 2046 AND KPER 2 TO BUDGET FILE TERMS FROM KSTP 1 AND KPER 2

 FMI SETTING HEAD FOR KSTP 2046 AND KPER 2 TO BINARY FILE HEADS FROM KSTP 1 AND KPER 2

 SFR-1 SETTING BUDGET TERMS FOR KSTP 2046 AND KPER 2 TO BUDGET FILE TERMS FROM KSTP 1 AND KPER 2

end timestep


start timestep kper="2" kstp="2047" mode="normal"


 FMI SETTING BUDGET TERMS FOR KSTP 2047 AND KPER 2 TO BUDGET FILE TERMS FROM KSTP 1 AND KPER 2

 FMI SETTING HEAD FOR KSTP 2047 AND KPER 2 TO BINARY FILE HEADS FROM KSTP 1 AND KPER 2

 SFR-1 SETTING BUDGET TERMS FOR KSTP 2047 AND KPER 2 TO BUDGET FILE TERMS FROM KSTP 1 AND KPER 2

end timestep


start timestep kper="2" kstp="2048" mode="normal"


 FMI SETTING BUDGET TERMS FOR KSTP 2048 AND KPER 2 TO BUDGET FILE TERMS FROM KSTP 1 AND KPER 2

 FMI SETTING HEAD FOR KSTP 2048 AND KPER 2 TO BINARY FILE HEADS FROM KSTP 1 AND KPER 2

 SFR-1 SETTING BUDGET TERMS FOR KSTP 2048 AND KPER 2 TO BUDGET FILE TERMS FROM KSTP 1 AND KPER 2

end timestep


start timestep kper="2" kstp="2049" mode="normal"


 FMI SETTING BUDGET TERMS FOR KSTP 2049 AND KPER 2 TO BUDGET FILE TERMS FROM KSTP 1 AND KPER 2

 FMI SETTING HEAD FOR KSTP 2049 AND KPER 2 TO BINARY FILE HEADS FROM KSTP 1 AND KPER 2

 SFR-1 SETTING BUDGET TERMS FOR KSTP 2049 AND KPER 2 TO BUDGET FILE TERMS FROM KSTP 1 AND KPER 2

end timestep


start timestep kper="2" kstp="2050" mode="normal"


 FMI SETTING BUDGET TERMS FOR KSTP 2050 AND KPER 2 TO BUDGET FILE TERMS FROM KSTP 1 AND KPER 2

 FMI SETTING HEAD FOR KSTP 2050 AND KPER 2 TO BINARY FILE HEADS FROM KSTP 1 AND KPER 2

 SFR-1 SETTING BUDGET TERMS FOR KSTP 2050 AND KPER 2 TO BUDGET FILE TERMS FROM KSTP 1 AND KPER 2

 CONCENTRATION WILL BE SAVED ON UNIT 1024 AT END OF TIME STEP 2050, STRESS PERIOD    2

end timestep


start timestep kper="2" kstp="2051" mode="normal"


 FMI SETTING BUDGET TERMS FOR KSTP 2051 AND KPER 2 TO BUDGET FILE TERMS FROM KSTP 1 AND KPER 2

 FMI SETTING HEAD FOR KSTP 2051 AND KPER 2 TO BINARY FILE HEADS FROM KSTP 1 AND KPER 2

 SFR-1 SETTING BUDGET TERMS FOR KSTP 2051 AND KPER 2 TO BUDGET FILE TERMS FROM KSTP 1 AND KPER 2

end timestep


start timestep kper="2" kstp="2052" mode="normal"


 FMI SETTING BUDGET TERMS FOR KSTP 2052 AND KPER 2 TO BUDGET FILE TERMS FROM KSTP 1 AND KPER 2

 FMI SETTING HEAD FOR KSTP 2052 AND KPER 2 TO BINARY FILE HEADS FROM KSTP 1 AND KPER 2

 SFR-1 SETTING BUDGET TERMS FOR KSTP 2052 AND KPER 2 TO BUDGET FILE TERMS FROM KSTP 1 AND KPER 2

end timestep


start timestep kper="2" kstp="2053" mode="normal"


 FMI SETTING BUDGET TERMS FOR KSTP 2053 AND KPER 2 TO BUDGET FILE TERMS FROM KSTP 1 AND KPER 2

 FMI SETTING HEAD FOR KSTP 2053 AND KPER 2 TO BINARY FILE HEADS FROM KSTP 1 AND KPER 2

 SFR-1 SETTING BUDGET TERMS FOR KSTP 2053 AND KPER 2 TO BUDGET FILE TERMS FROM KSTP 1 AND KPER 2

end timestep


start timestep kper="2" kstp="2054" mode="normal"


 FMI SETTING BUDGET TERMS FOR KSTP 2054 AND KPER 2 TO BUDGET FILE TERMS FROM KSTP 1 AND KPER 2

 FMI SETTING HEAD FOR KSTP 2054 AND KPER 2 TO BINARY FILE HEADS FROM KSTP 1 AND KPER 2

 SFR-1 SETTING BUDGET TERMS FOR KSTP 2054 AND KPER 2 TO BUDGET FILE TERMS FROM KSTP 1 AND KPER 2

end timestep


start timestep kper="2" kstp="2055" mode="normal"


 FMI SETTING BUDGET TERMS FOR KSTP 2055 AND KPER 2 TO BUDGET FILE TERMS FROM KSTP 1 AND KPER 2

 FMI SETTING HEAD FOR KSTP 2055 AND KPER 2 TO BINARY FILE HEADS FROM KSTP 1 AND KPER 2

 SFR-1 SETTING BUDGET TERMS FOR KSTP 2055 AND KPER 2 TO BUDGET FILE TERMS FROM KSTP 1 AND KPER 2

end timestep


start timestep kper="2" kstp="2056" mode="normal"


 FMI SETTING BUDGET TERMS FOR KSTP 2056 AND KPER 2 TO BUDGET FILE TERMS FROM KSTP 1 AND KPER 2

 FMI SETTING HEAD FOR KSTP 2056 AND KPER 2 TO BINARY FILE HEADS FROM KSTP 1 AND KPER 2

 SFR-1 SETTING BUDGET TERMS FOR KSTP 2056 AND KPER 2 TO BUDGET FILE TERMS FROM KSTP 1 AND KPER 2

end timestep


start timestep kper="2" kstp="2057" mode="normal"


 FMI SETTING BUDGET TERMS FOR KSTP 2057 AND KPER 2 TO BUDGET FILE TERMS FROM KSTP 1 AND KPER 2

 FMI SETTING HEAD FOR KSTP 2057 AND KPER 2 TO BINARY FILE HEADS FROM KSTP 1 AND KPER 2

 SFR-1 SETTING BUDGET TERMS FOR KSTP 2057 AND KPER 2 TO BUDGET FILE TERMS FROM KSTP 1 AND KPER 2

end timestep


start timestep kper="2" kstp="2058" mode="normal"


 FMI SETTING BUDGET TERMS FOR KSTP 2058 AND KPER 2 TO BUDGET FILE TERMS FROM KSTP 1 AND KPER 2

 FMI SETTING HEAD FOR KSTP 2058 AND KPER 2 TO BINARY FILE HEADS FROM KSTP 1 AND KPER 2

 SFR-1 SETTING BUDGET TERMS FOR KSTP 2058 AND KPER 2 TO BUDGET FILE TERMS FROM KSTP 1 AND KPER 2

end timestep


start timestep kper="2" kstp="2059" mode="normal"


 FMI SETTING BUDGET TERMS FOR KSTP 2059 AND KPER 2 TO BUDGET FILE TERMS FROM KSTP 1 AND KPER 2

 FMI SETTING HEAD FOR KSTP 2059 AND KPER 2 TO BINARY FILE HEADS FROM KSTP 1 AND KPER 2

 SFR-1 SETTING BUDGET TERMS FOR KSTP 2059 AND KPER 2 TO BUDGET FILE TERMS FROM KSTP 1 AND KPER 2

end timestep


start timestep kper="2" kstp="2060" mode="normal"


 FMI SETTING BUDGET TERMS FOR KSTP 2060 AND KPER 2 TO BUDGET FILE TERMS FROM KSTP 1 AND KPER 2

 FMI SETTING HEAD FOR KSTP 2060 AND KPER 2 TO BINARY FILE HEADS FROM KSTP 1 AND KPER 2

 SFR-1 SETTING BUDGET TERMS FOR KSTP 2060 AND KPER 2 TO BUDGET FILE TERMS FROM KSTP 1 AND KPER 2

 CONCENTRATION WILL BE SAVED ON UNIT 1024 AT END OF TIME STEP 2060, STRESS PERIOD    2

end timestep


start timestep kper="2" kstp="2061" mode="normal"


 FMI SETTING BUDGET TERMS FOR KSTP 2061 AND KPER 2 TO BUDGET FILE TERMS FROM KSTP 1 AND KPER 2

 FMI SETTING HEAD FOR KSTP 2061 AND KPER 2 TO BINARY FILE HEADS FROM KSTP 1 AND KPER 2

 SFR-1 SETTING BUDGET TERMS FOR KSTP 2061 AND KPER 2 TO BUDGET FILE TERMS FROM KSTP 1 AND KPER 2

end timestep


start timestep kper="2" kstp="2062" mode="normal"


 FMI SETTING BUDGET TERMS FOR KSTP 2062 AND KPER 2 TO BUDGET FILE TERMS FROM KSTP 1 AND KPER 2

 FMI SETTING HEAD FOR KSTP 2062 AND KPER 2 TO BINARY FILE HEADS FROM KSTP 1 AND KPER 2

 SFR-1 SETTING BUDGET TERMS FOR KSTP 2062 AND KPER 2 TO BUDGET FILE TERMS FROM KSTP 1 AND KPER 2

end timestep


start timestep kper="2" kstp="2063" mode="normal"


 FMI SETTING BUDGET TERMS FOR KSTP 2063 AND KPER 2 TO BUDGET FILE TERMS FROM KSTP 1 AND KPER 2

 FMI SETTING HEAD FOR KSTP 2063 AND KPER 2 TO BINARY FILE HEADS FROM KSTP 1 AND KPER 2

 SFR-1 SETTING BUDGET TERMS FOR KSTP 2063 AND KPER 2 TO BUDGET FILE TERMS FROM KSTP 1 AND KPER 2

end timestep


start timestep kper="2" kstp="2064" mode="normal"


 FMI SETTING BUDGET TERMS FOR KSTP 2064 AND KPER 2 TO BUDGET FILE TERMS FROM KSTP 1 AND KPER 2

 FMI SETTING HEAD FOR KSTP 2064 AND KPER 2 TO BINARY FILE HEADS FROM KSTP 1 AND KPER 2

 SFR-1 SETTING BUDGET TERMS FOR KSTP 2064 AND KPER 2 TO BUDGET FILE TERMS FROM KSTP 1 AND KPER 2

end timestep


start timestep kper="2" kstp="2065" mode="normal"


 FMI SETTING BUDGET TERMS FOR KSTP 2065 AND KPER 2 TO BUDGET FILE TERMS FROM KSTP 1 AND KPER 2

 FMI SETTING HEAD FOR KSTP 2065 AND KPER 2 TO BINARY FILE HEADS FROM KSTP 1 AND KPER 2

 SFR-1 SETTING BUDGET TERMS FOR KSTP 2065 AND KPER 2 TO BUDGET FILE TERMS FROM KSTP 1 AND KPER 2

end timestep


start timestep kper="2" kstp="2066" mode="normal"


 FMI SETTING BUDGET TERMS FOR KSTP 2066 AND KPER 2 TO BUDGET FILE TERMS FROM KSTP 1 AND KPER 2

 FMI SETTING HEAD FOR KSTP 2066 AND KPER 2 TO BINARY FILE HEADS FROM KSTP 1 AND KPER 2

 SFR-1 SETTING BUDGET TERMS FOR KSTP 2066 AND KPER 2 TO BUDGET FILE TERMS FROM KSTP 1 AND KPER 2

end timestep


start timestep kper="2" kstp="2067" mode="normal"


 FMI SETTING BUDGET TERMS FOR KSTP 2067 AND KPER 2 TO BUDGET FILE TERMS FROM KSTP 1 AND KPER 2

 FMI SETTING HEAD FOR KSTP 2067 AND KPER 2 TO BINARY FILE HEADS FROM KSTP 1 AND KPER 2

 SFR-1 SETTING BUDGET TERMS FOR KSTP 2067 AND KPER 2 TO BUDGET FILE TERMS FROM KSTP 1 AND KPER 2

end timestep


start timestep kper="2" kstp="2068" mode="normal"


 FMI SETTING BUDGET TERMS FOR KSTP 2068 AND KPER 2 TO BUDGET FILE TERMS FROM KSTP 1 AND KPER 2

 FMI SETTING HEAD FOR KSTP 2068 AND KPER 2 TO BINARY FILE HEADS FROM KSTP 1 AND KPER 2

 SFR-1 SETTING BUDGET TERMS FOR KSTP 2068 AND KPER 2 TO BUDGET FILE TERMS FROM KSTP 1 AND KPER 2

end timestep


start timestep kper="2" kstp="2069" mode="normal"


 FMI SETTING BUDGET TERMS FOR KSTP 2069 AND KPER 2 TO BUDGET FILE TERMS FROM KSTP 1 AND KPER 2

 FMI SETTING HEAD FOR KSTP 2069 AND KPER 2 TO BINARY FILE HEADS FROM KSTP 1 AND KPER 2

 SFR-1 SETTING BUDGET TERMS FOR KSTP 2069 AND KPER 2 TO BUDGET FILE TERMS FROM KSTP 1 AND KPER 2

end timestep


start timestep kper="2" kstp="2070" mode="normal"


 FMI SETTING BUDGET TERMS FOR KSTP 2070 AND KPER 2 TO BUDGET FILE TERMS FROM KSTP 1 AND KPER 2

 FMI SETTING HEAD FOR KSTP 2070 AND KPER 2 TO BINARY FILE HEADS FROM KSTP 1 AND KPER 2

 SFR-1 SETTING BUDGET TERMS FOR KSTP 2070 AND KPER 2 TO BUDGET FILE TERMS FROM KSTP 1 AND KPER 2

 CONCENTRATION WILL BE SAVED ON UNIT 1024 AT END OF TIME STEP 2070, STRESS PERIOD    2

end timestep


start timestep kper="2" kstp="2071" mode="normal"


 FMI SETTING BUDGET TERMS FOR KSTP 2071 AND KPER 2 TO BUDGET FILE TERMS FROM KSTP 1 AND KPER 2

 FMI SETTING HEAD FOR KSTP 2071 AND KPER 2 TO BINARY FILE HEADS FROM KSTP 1 AND KPER 2

 SFR-1 SETTING BUDGET TERMS FOR KSTP 2071 AND KPER 2 TO BUDGET FILE TERMS FROM KSTP 1 AND KPER 2

end timestep


start timestep kper="2" kstp="2072" mode="normal"


 FMI SETTING BUDGET TERMS FOR KSTP 2072 AND KPER 2 TO BUDGET FILE TERMS FROM KSTP 1 AND KPER 2

 FMI SETTING HEAD FOR KSTP 2072 AND KPER 2 TO BINARY FILE HEADS FROM KSTP 1 AND KPER 2

 SFR-1 SETTING BUDGET TERMS FOR KSTP 2072 AND KPER 2 TO BUDGET FILE TERMS FROM KSTP 1 AND KPER 2

end timestep


start timestep kper="2" kstp="2073" mode="normal"


 FMI SETTING BUDGET TERMS FOR KSTP 2073 AND KPER 2 TO BUDGET FILE TERMS FROM KSTP 1 AND KPER 2

 FMI SETTING HEAD FOR KSTP 2073 AND KPER 2 TO BINARY FILE HEADS FROM KSTP 1 AND KPER 2

 SFR-1 SETTING BUDGET TERMS FOR KSTP 2073 AND KPER 2 TO BUDGET FILE TERMS FROM KSTP 1 AND KPER 2

end timestep


start timestep kper="2" kstp="2074" mode="normal"


 FMI SETTING BUDGET TERMS FOR KSTP 2074 AND KPER 2 TO BUDGET FILE TERMS FROM KSTP 1 AND KPER 2

 FMI SETTING HEAD FOR KSTP 2074 AND KPER 2 TO BINARY FILE HEADS FROM KSTP 1 AND KPER 2

 SFR-1 SETTING BUDGET TERMS FOR KSTP 2074 AND KPER 2 TO BUDGET FILE TERMS FROM KSTP 1 AND KPER 2

end timestep


start timestep kper="2" kstp="2075" mode="normal"


 FMI SETTING BUDGET TERMS FOR KSTP 2075 AND KPER 2 TO BUDGET FILE TERMS FROM KSTP 1 AND KPER 2

 FMI SETTING HEAD FOR KSTP 2075 AND KPER 2 TO BINARY FILE HEADS FROM KSTP 1 AND KPER 2

 SFR-1 SETTING BUDGET TERMS FOR KSTP 2075 AND KPER 2 TO BUDGET FILE TERMS FROM KSTP 1 AND KPER 2

end timestep


start timestep kper="2" kstp="2076" mode="normal"


 FMI SETTING BUDGET TERMS FOR KSTP 2076 AND KPER 2 TO BUDGET FILE TERMS FROM KSTP 1 AND KPER 2

 FMI SETTING HEAD FOR KSTP 2076 AND KPER 2 TO BINARY FILE HEADS FROM KSTP 1 AND KPER 2

 SFR-1 SETTING BUDGET TERMS FOR KSTP 2076 AND KPER 2 TO BUDGET FILE TERMS FROM KSTP 1 AND KPER 2

end timestep


start timestep kper="2" kstp="2077" mode="normal"


 FMI SETTING BUDGET TERMS FOR KSTP 2077 AND KPER 2 TO BUDGET FILE TERMS FROM KSTP 1 AND KPER 2

 FMI SETTING HEAD FOR KSTP 2077 AND KPER 2 TO BINARY FILE HEADS FROM KSTP 1 AND KPER 2

 SFR-1 SETTING BUDGET TERMS FOR KSTP 2077 AND KPER 2 TO BUDGET FILE TERMS FROM KSTP 1 AND KPER 2

end timestep


start timestep kper="2" kstp="2078" mode="normal"


 FMI SETTING BUDGET TERMS FOR KSTP 2078 AND KPER 2 TO BUDGET FILE TERMS FROM KSTP 1 AND KPER 2

 FMI SETTING HEAD FOR KSTP 2078 AND KPER 2 TO BINARY FILE HEADS FROM KSTP 1 AND KPER 2

 SFR-1 SETTING BUDGET TERMS FOR KSTP 2078 AND KPER 2 TO BUDGET FILE TERMS FROM KSTP 1 AND KPER 2

end timestep


start timestep kper="2" kstp="2079" mode="normal"


 FMI SETTING BUDGET TERMS FOR KSTP 2079 AND KPER 2 TO BUDGET FILE TERMS FROM KSTP 1 AND KPER 2

 FMI SETTING HEAD FOR KSTP 2079 AND KPER 2 TO BINARY FILE HEADS FROM KSTP 1 AND KPER 2

 SFR-1 SETTING BUDGET TERMS FOR KSTP 2079 AND KPER 2 TO BUDGET FILE TERMS FROM KSTP 1 AND KPER 2

end timestep


start timestep kper="2" kstp="2080" mode="normal"


 FMI SETTING BUDGET TERMS FOR KSTP 2080 AND KPER 2 TO BUDGET FILE TERMS FROM KSTP 1 AND KPER 2

 FMI SETTING HEAD FOR KSTP 2080 AND KPER 2 TO BINARY FILE HEADS FROM KSTP 1 AND KPER 2

 SFR-1 SETTING BUDGET TERMS FOR KSTP 2080 AND KPER 2 TO BUDGET FILE TERMS FROM KSTP 1 AND KPER 2

 CONCENTRATION WILL BE SAVED ON UNIT 1024 AT END OF TIME STEP 2080, STRESS PERIOD    2

end timestep


start timestep kper="2" kstp="2081" mode="normal"


 FMI SETTING BUDGET TERMS FOR KSTP 2081 AND KPER 2 TO BUDGET FILE TERMS FROM KSTP 1 AND KPER 2

 FMI SETTING HEAD FOR KSTP 2081 AND KPER 2 TO BINARY FILE HEADS FROM KSTP 1 AND KPER 2

 SFR-1 SETTING BUDGET TERMS FOR KSTP 2081 AND KPER 2 TO BUDGET FILE TERMS FROM KSTP 1 AND KPER 2

end timestep


start timestep kper="2" kstp="2082" mode="normal"


 FMI SETTING BUDGET TERMS FOR KSTP 2082 AND KPER 2 TO BUDGET FILE TERMS FROM KSTP 1 AND KPER 2

 FMI SETTING HEAD FOR KSTP 2082 AND KPER 2 TO BINARY FILE HEADS FROM KSTP 1 AND KPER 2

 SFR-1 SETTING BUDGET TERMS FOR KSTP 2082 AND KPER 2 TO BUDGET FILE TERMS FROM KSTP 1 AND KPER 2

end timestep


start timestep kper="2" kstp="2083" mode="normal"


 FMI SETTING BUDGET TERMS FOR KSTP 2083 AND KPER 2 TO BUDGET FILE TERMS FROM KSTP 1 AND KPER 2

 FMI SETTING HEAD FOR KSTP 2083 AND KPER 2 TO BINARY FILE HEADS FROM KSTP 1 AND KPER 2

 SFR-1 SETTING BUDGET TERMS FOR KSTP 2083 AND KPER 2 TO BUDGET FILE TERMS FROM KSTP 1 AND KPER 2

end timestep


start timestep kper="2" kstp="2084" mode="normal"


 FMI SETTING BUDGET TERMS FOR KSTP 2084 AND KPER 2 TO BUDGET FILE TERMS FROM KSTP 1 AND KPER 2

 FMI SETTING HEAD FOR KSTP 2084 AND KPER 2 TO BINARY FILE HEADS FROM KSTP 1 AND KPER 2

 SFR-1 SETTING BUDGET TERMS FOR KSTP 2084 AND KPER 2 TO BUDGET FILE TERMS FROM KSTP 1 AND KPER 2

end timestep


start timestep kper="2" kstp="2085" mode="normal"


 FMI SETTING BUDGET TERMS FOR KSTP 2085 AND KPER 2 TO BUDGET FILE TERMS FROM KSTP 1 AND KPER 2

 FMI SETTING HEAD FOR KSTP 2085 AND KPER 2 TO BINARY FILE HEADS FROM KSTP 1 AND KPER 2

 SFR-1 SETTING BUDGET TERMS FOR KSTP 2085 AND KPER 2 TO BUDGET FILE TERMS FROM KSTP 1 AND KPER 2

end timestep


start timestep kper="2" kstp="2086" mode="normal"


 FMI SETTING BUDGET TERMS FOR KSTP 2086 AND KPER 2 TO BUDGET FILE TERMS FROM KSTP 1 AND KPER 2

 FMI SETTING HEAD FOR KSTP 2086 AND KPER 2 TO BINARY FILE HEADS FROM KSTP 1 AND KPER 2

 SFR-1 SETTING BUDGET TERMS FOR KSTP 2086 AND KPER 2 TO BUDGET FILE TERMS FROM KSTP 1 AND KPER 2

end timestep


start timestep kper="2" kstp="2087" mode="normal"


 FMI SETTING BUDGET TERMS FOR KSTP 2087 AND KPER 2 TO BUDGET FILE TERMS FROM KSTP 1 AND KPER 2

 FMI SETTING HEAD FOR KSTP 2087 AND KPER 2 TO BINARY FILE HEADS FROM KSTP 1 AND KPER 2

 SFR-1 SETTING BUDGET TERMS FOR KSTP 2087 AND KPER 2 TO BUDGET FILE TERMS FROM KSTP 1 AND KPER 2

end timestep


start timestep kper="2" kstp="2088" mode="normal"


 FMI SETTING BUDGET TERMS FOR KSTP 2088 AND KPER 2 TO BUDGET FILE TERMS FROM KSTP 1 AND KPER 2

 FMI SETTING HEAD FOR KSTP 2088 AND KPER 2 TO BINARY FILE HEADS FROM KSTP 1 AND KPER 2

 SFR-1 SETTING BUDGET TERMS FOR KSTP 2088 AND KPER 2 TO BUDGET FILE TERMS FROM KSTP 1 AND KPER 2

end timestep


start timestep kper="2" kstp="2089" mode="normal"


 FMI SETTING BUDGET TERMS FOR KSTP 2089 AND KPER 2 TO BUDGET FILE TERMS FROM KSTP 1 AND KPER 2

 FMI SETTING HEAD FOR KSTP 2089 AND KPER 2 TO BINARY FILE HEADS FROM KSTP 1 AND KPER 2

 SFR-1 SETTING BUDGET TERMS FOR KSTP 2089 AND KPER 2 TO BUDGET FILE TERMS FROM KSTP 1 AND KPER 2

end timestep


start timestep kper="2" kstp="2090" mode="normal"


 FMI SETTING BUDGET TERMS FOR KSTP 2090 AND KPER 2 TO BUDGET FILE TERMS FROM KSTP 1 AND KPER 2

 FMI SETTING HEAD FOR KSTP 2090 AND KPER 2 TO BINARY FILE HEADS FROM KSTP 1 AND KPER 2

 SFR-1 SETTING BUDGET TERMS FOR KSTP 2090 AND KPER 2 TO BUDGET FILE TERMS FROM KSTP 1 AND KPER 2

 CONCENTRATION WILL BE SAVED ON UNIT 1024 AT END OF TIME STEP 2090, STRESS PERIOD    2

end timestep


start timestep kper="2" kstp="2091" mode="normal"


 FMI SETTING BUDGET TERMS FOR KSTP 2091 AND KPER 2 TO BUDGET FILE TERMS FROM KSTP 1 AND KPER 2

 FMI SETTING HEAD FOR KSTP 2091 AND KPER 2 TO BINARY FILE HEADS FROM KSTP 1 AND KPER 2

 SFR-1 SETTING BUDGET TERMS FOR KSTP 2091 AND KPER 2 TO BUDGET FILE TERMS FROM KSTP 1 AND KPER 2

end timestep


start timestep kper="2" kstp="2092" mode="normal"


 FMI SETTING BUDGET TERMS FOR KSTP 2092 AND KPER 2 TO BUDGET FILE TERMS FROM KSTP 1 AND KPER 2

 FMI SETTING HEAD FOR KSTP 2092 AND KPER 2 TO BINARY FILE HEADS FROM KSTP 1 AND KPER 2

 SFR-1 SETTING BUDGET TERMS FOR KSTP 2092 AND KPER 2 TO BUDGET FILE TERMS FROM KSTP 1 AND KPER 2

end timestep


start timestep kper="2" kstp="2093" mode="normal"


 FMI SETTING BUDGET TERMS FOR KSTP 2093 AND KPER 2 TO BUDGET FILE TERMS FROM KSTP 1 AND KPER 2

 FMI SETTING HEAD FOR KSTP 2093 AND KPER 2 TO BINARY FILE HEADS FROM KSTP 1 AND KPER 2

 SFR-1 SETTING BUDGET TERMS FOR KSTP 2093 AND KPER 2 TO BUDGET FILE TERMS FROM KSTP 1 AND KPER 2

end timestep


start timestep kper="2" kstp="2094" mode="normal"


 FMI SETTING BUDGET TERMS FOR KSTP 2094 AND KPER 2 TO BUDGET FILE TERMS FROM KSTP 1 AND KPER 2

 FMI SETTING HEAD FOR KSTP 2094 AND KPER 2 TO BINARY FILE HEADS FROM KSTP 1 AND KPER 2

 SFR-1 SETTING BUDGET TERMS FOR KSTP 2094 AND KPER 2 TO BUDGET FILE TERMS FROM KSTP 1 AND KPER 2

end timestep


start timestep kper="2" kstp="2095" mode="normal"


 FMI SETTING BUDGET TERMS FOR KSTP 2095 AND KPER 2 TO BUDGET FILE TERMS FROM KSTP 1 AND KPER 2

 FMI SETTING HEAD FOR KSTP 2095 AND KPER 2 TO BINARY FILE HEADS FROM KSTP 1 AND KPER 2

 SFR-1 SETTING BUDGET TERMS FOR KSTP 2095 AND KPER 2 TO BUDGET FILE TERMS FROM KSTP 1 AND KPER 2

end timestep


start timestep kper="2" kstp="2096" mode="normal"


 FMI SETTING BUDGET TERMS FOR KSTP 2096 AND KPER 2 TO BUDGET FILE TERMS FROM KSTP 1 AND KPER 2

 FMI SETTING HEAD FOR KSTP 2096 AND KPER 2 TO BINARY FILE HEADS FROM KSTP 1 AND KPER 2

 SFR-1 SETTING BUDGET TERMS FOR KSTP 2096 AND KPER 2 TO BUDGET FILE TERMS FROM KSTP 1 AND KPER 2

end timestep


start timestep kper="2" kstp="2097" mode="normal"


 FMI SETTING BUDGET TERMS FOR KSTP 2097 AND KPER 2 TO BUDGET FILE TERMS FROM KSTP 1 AND KPER 2

 FMI SETTING HEAD FOR KSTP 2097 AND KPER 2 TO BINARY FILE HEADS FROM KSTP 1 AND KPER 2

 SFR-1 SETTING BUDGET TERMS FOR KSTP 2097 AND KPER 2 TO BUDGET FILE TERMS FROM KSTP 1 AND KPER 2

end timestep


start timestep kper="2" kstp="2098" mode="normal"


 FMI SETTING BUDGET TERMS FOR KSTP 2098 AND KPER 2 TO BUDGET FILE TERMS FROM KSTP 1 AND KPER 2

 FMI SETTING HEAD FOR KSTP 2098 AND KPER 2 TO BINARY FILE HEADS FROM KSTP 1 AND KPER 2

 SFR-1 SETTING BUDGET TERMS FOR KSTP 2098 AND KPER 2 TO BUDGET FILE TERMS FROM KSTP 1 AND KPER 2

end timestep


start timestep kper="2" kstp="2099" mode="normal"


 FMI SETTING BUDGET TERMS FOR KSTP 2099 AND KPER 2 TO BUDGET FILE TERMS FROM KSTP 1 AND KPER 2

 FMI SETTING HEAD FOR KSTP 2099 AND KPER 2 TO BINARY FILE HEADS FROM KSTP 1 AND KPER 2

 SFR-1 SETTING BUDGET TERMS FOR KSTP 2099 AND KPER 2 TO BUDGET FILE TERMS FROM KSTP 1 AND KPER 2

end timestep


start timestep kper="2" kstp="2100" mode="normal"


 FMI SETTING BUDGET TERMS FOR KSTP 2100 AND KPER 2 TO BUDGET FILE TERMS FROM KSTP 1 AND KPER 2

 FMI SETTING HEAD FOR KSTP 2100 AND KPER 2 TO BINARY FILE HEADS FROM KSTP 1 AND KPER 2

 SFR-1 SETTING BUDGET TERMS FOR KSTP 2100 AND KPER 2 TO BUDGET FILE TERMS FROM KSTP 1 AND KPER 2

 CONCENTRATION WILL BE SAVED ON UNIT 1024 AT END OF TIME STEP 2100, STRESS PERIOD    2

end timestep


start timestep kper="2" kstp="2101" mode="normal"


 FMI SETTING BUDGET TERMS FOR KSTP 2101 AND KPER 2 TO BUDGET FILE TERMS FROM KSTP 1 AND KPER 2

 FMI SETTING HEAD FOR KSTP 2101 AND KPER 2 TO BINARY FILE HEADS FROM KSTP 1 AND KPER 2

 SFR-1 SETTING BUDGET TERMS FOR KSTP 2101 AND KPER 2 TO BUDGET FILE TERMS FROM KSTP 1 AND KPER 2

end timestep


start timestep kper="2" kstp="2102" mode="normal"


 FMI SETTING BUDGET TERMS FOR KSTP 2102 AND KPER 2 TO BUDGET FILE TERMS FROM KSTP 1 AND KPER 2

 FMI SETTING HEAD FOR KSTP 2102 AND KPER 2 TO BINARY FILE HEADS FROM KSTP 1 AND KPER 2

 SFR-1 SETTING BUDGET TERMS FOR KSTP 2102 AND KPER 2 TO BUDGET FILE TERMS FROM KSTP 1 AND KPER 2

end timestep


start timestep kper="2" kstp="2103" mode="normal"


 FMI SETTING BUDGET TERMS FOR KSTP 2103 AND KPER 2 TO BUDGET FILE TERMS FROM KSTP 1 AND KPER 2

 FMI SETTING HEAD FOR KSTP 2103 AND KPER 2 TO BINARY FILE HEADS FROM KSTP 1 AND KPER 2

 SFR-1 SETTING BUDGET TERMS FOR KSTP 2103 AND KPER 2 TO BUDGET FILE TERMS FROM KSTP 1 AND KPER 2

end timestep


start timestep kper="2" kstp="2104" mode="normal"


 FMI SETTING BUDGET TERMS FOR KSTP 2104 AND KPER 2 TO BUDGET FILE TERMS FROM KSTP 1 AND KPER 2

 FMI SETTING HEAD FOR KSTP 2104 AND KPER 2 TO BINARY FILE HEADS FROM KSTP 1 AND KPER 2

 SFR-1 SETTING BUDGET TERMS FOR KSTP 2104 AND KPER 2 TO BUDGET FILE TERMS FROM KSTP 1 AND KPER 2

end timestep


start timestep kper="2" kstp="2105" mode="normal"


 FMI SETTING BUDGET TERMS FOR KSTP 2105 AND KPER 2 TO BUDGET FILE TERMS FROM KSTP 1 AND KPER 2

 FMI SETTING HEAD FOR KSTP 2105 AND KPER 2 TO BINARY FILE HEADS FROM KSTP 1 AND KPER 2

 SFR-1 SETTING BUDGET TERMS FOR KSTP 2105 AND KPER 2 TO BUDGET FILE TERMS FROM KSTP 1 AND KPER 2

end timestep


start timestep kper="2" kstp="2106" mode="normal"


 FMI SETTING BUDGET TERMS FOR KSTP 2106 AND KPER 2 TO BUDGET FILE TERMS FROM KSTP 1 AND KPER 2

 FMI SETTING HEAD FOR KSTP 2106 AND KPER 2 TO BINARY FILE HEADS FROM KSTP 1 AND KPER 2

 SFR-1 SETTING BUDGET TERMS FOR KSTP 2106 AND KPER 2 TO BUDGET FILE TERMS FROM KSTP 1 AND KPER 2

end timestep


start timestep kper="2" kstp="2107" mode="normal"


 FMI SETTING BUDGET TERMS FOR KSTP 2107 AND KPER 2 TO BUDGET FILE TERMS FROM KSTP 1 AND KPER 2

 FMI SETTING HEAD FOR KSTP 2107 AND KPER 2 TO BINARY FILE HEADS FROM KSTP 1 AND KPER 2

 SFR-1 SETTING BUDGET TERMS FOR KSTP 2107 AND KPER 2 TO BUDGET FILE TERMS FROM KSTP 1 AND KPER 2

end timestep


start timestep kper="2" kstp="2108" mode="normal"


 FMI SETTING BUDGET TERMS FOR KSTP 2108 AND KPER 2 TO BUDGET FILE TERMS FROM KSTP 1 AND KPER 2

 FMI SETTING HEAD FOR KSTP 2108 AND KPER 2 TO BINARY FILE HEADS FROM KSTP 1 AND KPER 2

 SFR-1 SETTING BUDGET TERMS FOR KSTP 2108 AND KPER 2 TO BUDGET FILE TERMS FROM KSTP 1 AND KPER 2

end timestep


start timestep kper="2" kstp="2109" mode="normal"


 FMI SETTING BUDGET TERMS FOR KSTP 2109 AND KPER 2 TO BUDGET FILE TERMS FROM KSTP 1 AND KPER 2

 FMI SETTING HEAD FOR KSTP 2109 AND KPER 2 TO BINARY FILE HEADS FROM KSTP 1 AND KPER 2

 SFR-1 SETTING BUDGET TERMS FOR KSTP 2109 AND KPER 2 TO BUDGET FILE TERMS FROM KSTP 1 AND KPER 2

end timestep


start timestep kper="2" kstp="2110" mode="normal"


 FMI SETTING BUDGET TERMS FOR KSTP 2110 AND KPER 2 TO BUDGET FILE TERMS FROM KSTP 1 AND KPER 2

 FMI SETTING HEAD FOR KSTP 2110 AND KPER 2 TO BINARY FILE HEADS FROM KSTP 1 AND KPER 2

 SFR-1 SETTING BUDGET TERMS FOR KSTP 2110 AND KPER 2 TO BUDGET FILE TERMS FROM KSTP 1 AND KPER 2

 CONCENTRATION WILL BE SAVED ON UNIT 1024 AT END OF TIME STEP 2110, STRESS PERIOD    2

end timestep


start timestep kper="2" kstp="2111" mode="normal"


 FMI SETTING BUDGET TERMS FOR KSTP 2111 AND KPER 2 TO BUDGET FILE TERMS FROM KSTP 1 AND KPER 2

 FMI SETTING HEAD FOR KSTP 2111 AND KPER 2 TO BINARY FILE HEADS FROM KSTP 1 AND KPER 2

 SFR-1 SETTING BUDGET TERMS FOR KSTP 2111 AND KPER 2 TO BUDGET FILE TERMS FROM KSTP 1 AND KPER 2

end timestep


start timestep kper="2" kstp="2112" mode="normal"


 FMI SETTING BUDGET TERMS FOR KSTP 2112 AND KPER 2 TO BUDGET FILE TERMS FROM KSTP 1 AND KPER 2

 FMI SETTING HEAD FOR KSTP 2112 AND KPER 2 TO BINARY FILE HEADS FROM KSTP 1 AND KPER 2

 SFR-1 SETTING BUDGET TERMS FOR KSTP 2112 AND KPER 2 TO BUDGET FILE TERMS FROM KSTP 1 AND KPER 2

end timestep


start timestep kper="2" kstp="2113" mode="normal"


 FMI SETTING BUDGET TERMS FOR KSTP 2113 AND KPER 2 TO BUDGET FILE TERMS FROM KSTP 1 AND KPER 2

 FMI SETTING HEAD FOR KSTP 2113 AND KPER 2 TO BINARY FILE HEADS FROM KSTP 1 AND KPER 2

 SFR-1 SETTING BUDGET TERMS FOR KSTP 2113 AND KPER 2 TO BUDGET FILE TERMS FROM KSTP 1 AND KPER 2

end timestep


start timestep kper="2" kstp="2114" mode="normal"


 FMI SETTING BUDGET TERMS FOR KSTP 2114 AND KPER 2 TO BUDGET FILE TERMS FROM KSTP 1 AND KPER 2

 FMI SETTING HEAD FOR KSTP 2114 AND KPER 2 TO BINARY FILE HEADS FROM KSTP 1 AND KPER 2

 SFR-1 SETTING BUDGET TERMS FOR KSTP 2114 AND KPER 2 TO BUDGET FILE TERMS FROM KSTP 1 AND KPER 2

end timestep


start timestep kper="2" kstp="2115" mode="normal"


 FMI SETTING BUDGET TERMS FOR KSTP 2115 AND KPER 2 TO BUDGET FILE TERMS FROM KSTP 1 AND KPER 2

 FMI SETTING HEAD FOR KSTP 2115 AND KPER 2 TO BINARY FILE HEADS FROM KSTP 1 AND KPER 2

 SFR-1 SETTING BUDGET TERMS FOR KSTP 2115 AND KPER 2 TO BUDGET FILE TERMS FROM KSTP 1 AND KPER 2

end timestep


start timestep kper="2" kstp="2116" mode="normal"


 FMI SETTING BUDGET TERMS FOR KSTP 2116 AND KPER 2 TO BUDGET FILE TERMS FROM KSTP 1 AND KPER 2

 FMI SETTING HEAD FOR KSTP 2116 AND KPER 2 TO BINARY FILE HEADS FROM KSTP 1 AND KPER 2

 SFR-1 SETTING BUDGET TERMS FOR KSTP 2116 AND KPER 2 TO BUDGET FILE TERMS FROM KSTP 1 AND KPER 2

end timestep


start timestep kper="2" kstp="2117" mode="normal"


 FMI SETTING BUDGET TERMS FOR KSTP 2117 AND KPER 2 TO BUDGET FILE TERMS FROM KSTP 1 AND KPER 2

 FMI SETTING HEAD FOR KSTP 2117 AND KPER 2 TO BINARY FILE HEADS FROM KSTP 1 AND KPER 2

 SFR-1 SETTING BUDGET TERMS FOR KSTP 2117 AND KPER 2 TO BUDGET FILE TERMS FROM KSTP 1 AND KPER 2

end timestep


start timestep kper="2" kstp="2118" mode="normal"


 FMI SETTING BUDGET TERMS FOR KSTP 2118 AND KPER 2 TO BUDGET FILE TERMS FROM KSTP 1 AND KPER 2

 FMI SETTING HEAD FOR KSTP 2118 AND KPER 2 TO BINARY FILE HEADS FROM KSTP 1 AND KPER 2

 SFR-1 SETTING BUDGET TERMS FOR KSTP 2118 AND KPER 2 TO BUDGET FILE TERMS FROM KSTP 1 AND KPER 2

end timestep


start timestep kper="2" kstp="2119" mode="normal"


 FMI SETTING BUDGET TERMS FOR KSTP 2119 AND KPER 2 TO BUDGET FILE TERMS FROM KSTP 1 AND KPER 2

 FMI SETTING HEAD FOR KSTP 2119 AND KPER 2 TO BINARY FILE HEADS FROM KSTP 1 AND KPER 2

 SFR-1 SETTING BUDGET TERMS FOR KSTP 2119 AND KPER 2 TO BUDGET FILE TERMS FROM KSTP 1 AND KPER 2

end timestep


start timestep kper="2" kstp="2120" mode="normal"


 FMI SETTING BUDGET TERMS FOR KSTP 2120 AND KPER 2 TO BUDGET FILE TERMS FROM KSTP 1 AND KPER 2

 FMI SETTING HEAD FOR KSTP 2120 AND KPER 2 TO BINARY FILE HEADS FROM KSTP 1 AND KPER 2

 SFR-1 SETTING BUDGET TERMS FOR KSTP 2120 AND KPER 2 TO BUDGET FILE TERMS FROM KSTP 1 AND KPER 2

 CONCENTRATION WILL BE SAVED ON UNIT 1024 AT END OF TIME STEP 2120, STRESS PERIOD    2

end timestep


start timestep kper="2" kstp="2121" mode="normal"


 FMI SETTING BUDGET TERMS FOR KSTP 2121 AND KPER 2 TO BUDGET FILE TERMS FROM KSTP 1 AND KPER 2

 FMI SETTING HEAD FOR KSTP 2121 AND KPER 2 TO BINARY FILE HEADS FROM KSTP 1 AND KPER 2

 SFR-1 SETTING BUDGET TERMS FOR KSTP 2121 AND KPER 2 TO BUDGET FILE TERMS FROM KSTP 1 AND KPER 2

end timestep


start timestep kper="2" kstp="2122" mode="normal"


 FMI SETTING BUDGET TERMS FOR KSTP 2122 AND KPER 2 TO BUDGET FILE TERMS FROM KSTP 1 AND KPER 2

 FMI SETTING HEAD FOR KSTP 2122 AND KPER 2 TO BINARY FILE HEADS FROM KSTP 1 AND KPER 2

 SFR-1 SETTING BUDGET TERMS FOR KSTP 2122 AND KPER 2 TO BUDGET FILE TERMS FROM KSTP 1 AND KPER 2

end timestep


start timestep kper="2" kstp="2123" mode="normal"


 FMI SETTING BUDGET TERMS FOR KSTP 2123 AND KPER 2 TO BUDGET FILE TERMS FROM KSTP 1 AND KPER 2

 FMI SETTING HEAD FOR KSTP 2123 AND KPER 2 TO BINARY FILE HEADS FROM KSTP 1 AND KPER 2

 SFR-1 SETTING BUDGET TERMS FOR KSTP 2123 AND KPER 2 TO BUDGET FILE TERMS FROM KSTP 1 AND KPER 2

end timestep


start timestep kper="2" kstp="2124" mode="normal"


 FMI SETTING BUDGET TERMS FOR KSTP 2124 AND KPER 2 TO BUDGET FILE TERMS FROM KSTP 1 AND KPER 2

 FMI SETTING HEAD FOR KSTP 2124 AND KPER 2 TO BINARY FILE HEADS FROM KSTP 1 AND KPER 2

 SFR-1 SETTING BUDGET TERMS FOR KSTP 2124 AND KPER 2 TO BUDGET FILE TERMS FROM KSTP 1 AND KPER 2

end timestep


start timestep kper="2" kstp="2125" mode="normal"


 FMI SETTING BUDGET TERMS FOR KSTP 2125 AND KPER 2 TO BUDGET FILE TERMS FROM KSTP 1 AND KPER 2

 FMI SETTING HEAD FOR KSTP 2125 AND KPER 2 TO BINARY FILE HEADS FROM KSTP 1 AND KPER 2

 SFR-1 SETTING BUDGET TERMS FOR KSTP 2125 AND KPER 2 TO BUDGET FILE TERMS FROM KSTP 1 AND KPER 2

end timestep


start timestep kper="2" kstp="2126" mode="normal"


 FMI SETTING BUDGET TERMS FOR KSTP 2126 AND KPER 2 TO BUDGET FILE TERMS FROM KSTP 1 AND KPER 2

 FMI SETTING HEAD FOR KSTP 2126 AND KPER 2 TO BINARY FILE HEADS FROM KSTP 1 AND KPER 2

 SFR-1 SETTING BUDGET TERMS FOR KSTP 2126 AND KPER 2 TO BUDGET FILE TERMS FROM KSTP 1 AND KPER 2

end timestep


start timestep kper="2" kstp="2127" mode="normal"


 FMI SETTING BUDGET TERMS FOR KSTP 2127 AND KPER 2 TO BUDGET FILE TERMS FROM KSTP 1 AND KPER 2

 FMI SETTING HEAD FOR KSTP 2127 AND KPER 2 TO BINARY FILE HEADS FROM KSTP 1 AND KPER 2

 SFR-1 SETTING BUDGET TERMS FOR KSTP 2127 AND KPER 2 TO BUDGET FILE TERMS FROM KSTP 1 AND KPER 2

end timestep


start timestep kper="2" kstp="2128" mode="normal"


 FMI SETTING BUDGET TERMS FOR KSTP 2128 AND KPER 2 TO BUDGET FILE TERMS FROM KSTP 1 AND KPER 2

 FMI SETTING HEAD FOR KSTP 2128 AND KPER 2 TO BINARY FILE HEADS FROM KSTP 1 AND KPER 2

 SFR-1 SETTING BUDGET TERMS FOR KSTP 2128 AND KPER 2 TO BUDGET FILE TERMS FROM KSTP 1 AND KPER 2

end timestep


start timestep kper="2" kstp="2129" mode="normal"


 FMI SETTING BUDGET TERMS FOR KSTP 2129 AND KPER 2 TO BUDGET FILE TERMS FROM KSTP 1 AND KPER 2

 FMI SETTING HEAD FOR KSTP 2129 AND KPER 2 TO BINARY FILE HEADS FROM KSTP 1 AND KPER 2

 SFR-1 SETTING BUDGET TERMS FOR KSTP 2129 AND KPER 2 TO BUDGET FILE TERMS FROM KSTP 1 AND KPER 2

end timestep


start timestep kper="2" kstp="2130" mode="normal"


 FMI SETTING BUDGET TERMS FOR KSTP 2130 AND KPER 2 TO BUDGET FILE TERMS FROM KSTP 1 AND KPER 2

 FMI SETTING HEAD FOR KSTP 2130 AND KPER 2 TO BINARY FILE HEADS FROM KSTP 1 AND KPER 2

 SFR-1 SETTING BUDGET TERMS FOR KSTP 2130 AND KPER 2 TO BUDGET FILE TERMS FROM KSTP 1 AND KPER 2

 CONCENTRATION WILL BE SAVED ON UNIT 1024 AT END OF TIME STEP 2130, STRESS PERIOD    2

end timestep


start timestep kper="2" kstp="2131" mode="normal"


 FMI SETTING BUDGET TERMS FOR KSTP 2131 AND KPER 2 TO BUDGET FILE TERMS FROM KSTP 1 AND KPER 2

 FMI SETTING HEAD FOR KSTP 2131 AND KPER 2 TO BINARY FILE HEADS FROM KSTP 1 AND KPER 2

 SFR-1 SETTING BUDGET TERMS FOR KSTP 2131 AND KPER 2 TO BUDGET FILE TERMS FROM KSTP 1 AND KPER 2

end timestep


start timestep kper="2" kstp="2132" mode="normal"


 FMI SETTING BUDGET TERMS FOR KSTP 2132 AND KPER 2 TO BUDGET FILE TERMS FROM KSTP 1 AND KPER 2

 FMI SETTING HEAD FOR KSTP 2132 AND KPER 2 TO BINARY FILE HEADS FROM KSTP 1 AND KPER 2

 SFR-1 SETTING BUDGET TERMS FOR KSTP 2132 AND KPER 2 TO BUDGET FILE TERMS FROM KSTP 1 AND KPER 2

end timestep


start timestep kper="2" kstp="2133" mode="normal"


 FMI SETTING BUDGET TERMS FOR KSTP 2133 AND KPER 2 TO BUDGET FILE TERMS FROM KSTP 1 AND KPER 2

 FMI SETTING HEAD FOR KSTP 2133 AND KPER 2 TO BINARY FILE HEADS FROM KSTP 1 AND KPER 2

 SFR-1 SETTING BUDGET TERMS FOR KSTP 2133 AND KPER 2 TO BUDGET FILE TERMS FROM KSTP 1 AND KPER 2

end timestep


start timestep kper="2" kstp="2134" mode="normal"


 FMI SETTING BUDGET TERMS FOR KSTP 2134 AND KPER 2 TO BUDGET FILE TERMS FROM KSTP 1 AND KPER 2

 FMI SETTING HEAD FOR KSTP 2134 AND KPER 2 TO BINARY FILE HEADS FROM KSTP 1 AND KPER 2

 SFR-1 SETTING BUDGET TERMS FOR KSTP 2134 AND KPER 2 TO BUDGET FILE TERMS FROM KSTP 1 AND KPER 2

end timestep


start timestep kper="2" kstp="2135" mode="normal"


 FMI SETTING BUDGET TERMS FOR KSTP 2135 AND KPER 2 TO BUDGET FILE TERMS FROM KSTP 1 AND KPER 2

 FMI SETTING HEAD FOR KSTP 2135 AND KPER 2 TO BINARY FILE HEADS FROM KSTP 1 AND KPER 2

 SFR-1 SETTING BUDGET TERMS FOR KSTP 2135 AND KPER 2 TO BUDGET FILE TERMS FROM KSTP 1 AND KPER 2

end timestep


start timestep kper="2" kstp="2136" mode="normal"


 FMI SETTING BUDGET TERMS FOR KSTP 2136 AND KPER 2 TO BUDGET FILE TERMS FROM KSTP 1 AND KPER 2

 FMI SETTING HEAD FOR KSTP 2136 AND KPER 2 TO BINARY FILE HEADS FROM KSTP 1 AND KPER 2

 SFR-1 SETTING BUDGET TERMS FOR KSTP 2136 AND KPER 2 TO BUDGET FILE TERMS FROM KSTP 1 AND KPER 2

end timestep


start timestep kper="2" kstp="2137" mode="normal"


 FMI SETTING BUDGET TERMS FOR KSTP 2137 AND KPER 2 TO BUDGET FILE TERMS FROM KSTP 1 AND KPER 2

 FMI SETTING HEAD FOR KSTP 2137 AND KPER 2 TO BINARY FILE HEADS FROM KSTP 1 AND KPER 2

 SFR-1 SETTING BUDGET TERMS FOR KSTP 2137 AND KPER 2 TO BUDGET FILE TERMS FROM KSTP 1 AND KPER 2

end timestep


start timestep kper="2" kstp="2138" mode="normal"


 FMI SETTING BUDGET TERMS FOR KSTP 2138 AND KPER 2 TO BUDGET FILE TERMS FROM KSTP 1 AND KPER 2

 FMI SETTING HEAD FOR KSTP 2138 AND KPER 2 TO BINARY FILE HEADS FROM KSTP 1 AND KPER 2

 SFR-1 SETTING BUDGET TERMS FOR KSTP 2138 AND KPER 2 TO BUDGET FILE TERMS FROM KSTP 1 AND KPER 2

end timestep


start timestep kper="2" kstp="2139" mode="normal"


 FMI SETTING BUDGET TERMS FOR KSTP 2139 AND KPER 2 TO BUDGET FILE TERMS FROM KSTP 1 AND KPER 2

 FMI SETTING HEAD FOR KSTP 2139 AND KPER 2 TO BINARY FILE HEADS FROM KSTP 1 AND KPER 2

 SFR-1 SETTING BUDGET TERMS FOR KSTP 2139 AND KPER 2 TO BUDGET FILE TERMS FROM KSTP 1 AND KPER 2

end timestep


start timestep kper="2" kstp="2140" mode="normal"


 FMI SETTING BUDGET TERMS FOR KSTP 2140 AND KPER 2 TO BUDGET FILE TERMS FROM KSTP 1 AND KPER 2

 FMI SETTING HEAD FOR KSTP 2140 AND KPER 2 TO BINARY FILE HEADS FROM KSTP 1 AND KPER 2

 SFR-1 SETTING BUDGET TERMS FOR KSTP 2140 AND KPER 2 TO BUDGET FILE TERMS FROM KSTP 1 AND KPER 2

 CONCENTRATION WILL BE SAVED ON UNIT 1024 AT END OF TIME STEP 2140, STRESS PERIOD    2

end timestep


start timestep kper="2" kstp="2141" mode="normal"


 FMI SETTING BUDGET TERMS FOR KSTP 2141 AND KPER 2 TO BUDGET FILE TERMS FROM KSTP 1 AND KPER 2

 FMI SETTING HEAD FOR KSTP 2141 AND KPER 2 TO BINARY FILE HEADS FROM KSTP 1 AND KPER 2

 SFR-1 SETTING BUDGET TERMS FOR KSTP 2141 AND KPER 2 TO BUDGET FILE TERMS FROM KSTP 1 AND KPER 2

end timestep


start timestep kper="2" kstp="2142" mode="normal"


 FMI SETTING BUDGET TERMS FOR KSTP 2142 AND KPER 2 TO BUDGET FILE TERMS FROM KSTP 1 AND KPER 2

 FMI SETTING HEAD FOR KSTP 2142 AND KPER 2 TO BINARY FILE HEADS FROM KSTP 1 AND KPER 2

 SFR-1 SETTING BUDGET TERMS FOR KSTP 2142 AND KPER 2 TO BUDGET FILE TERMS FROM KSTP 1 AND KPER 2

end timestep


start timestep kper="2" kstp="2143" mode="normal"


 FMI SETTING BUDGET TERMS FOR KSTP 2143 AND KPER 2 TO BUDGET FILE TERMS FROM KSTP 1 AND KPER 2

 FMI SETTING HEAD FOR KSTP 2143 AND KPER 2 TO BINARY FILE HEADS FROM KSTP 1 AND KPER 2

 SFR-1 SETTING BUDGET TERMS FOR KSTP 2143 AND KPER 2 TO BUDGET FILE TERMS FROM KSTP 1 AND KPER 2

end timestep


start timestep kper="2" kstp="2144" mode="normal"


 FMI SETTING BUDGET TERMS FOR KSTP 2144 AND KPER 2 TO BUDGET FILE TERMS FROM KSTP 1 AND KPER 2

 FMI SETTING HEAD FOR KSTP 2144 AND KPER 2 TO BINARY FILE HEADS FROM KSTP 1 AND KPER 2

 SFR-1 SETTING BUDGET TERMS FOR KSTP 2144 AND KPER 2 TO BUDGET FILE TERMS FROM KSTP 1 AND KPER 2

end timestep


start timestep kper="2" kstp="2145" mode="normal"


 FMI SETTING BUDGET TERMS FOR KSTP 2145 AND KPER 2 TO BUDGET FILE TERMS FROM KSTP 1 AND KPER 2

 FMI SETTING HEAD FOR KSTP 2145 AND KPER 2 TO BINARY FILE HEADS FROM KSTP 1 AND KPER 2

 SFR-1 SETTING BUDGET TERMS FOR KSTP 2145 AND KPER 2 TO BUDGET FILE TERMS FROM KSTP 1 AND KPER 2

end timestep


start timestep kper="2" kstp="2146" mode="normal"


 FMI SETTING BUDGET TERMS FOR KSTP 2146 AND KPER 2 TO BUDGET FILE TERMS FROM KSTP 1 AND KPER 2

 FMI SETTING HEAD FOR KSTP 2146 AND KPER 2 TO BINARY FILE HEADS FROM KSTP 1 AND KPER 2

 SFR-1 SETTING BUDGET TERMS FOR KSTP 2146 AND KPER 2 TO BUDGET FILE TERMS FROM KSTP 1 AND KPER 2

end timestep


start timestep kper="2" kstp="2147" mode="normal"


 FMI SETTING BUDGET TERMS FOR KSTP 2147 AND KPER 2 TO BUDGET FILE TERMS FROM KSTP 1 AND KPER 2

 FMI SETTING HEAD FOR KSTP 2147 AND KPER 2 TO BINARY FILE HEADS FROM KSTP 1 AND KPER 2

 SFR-1 SETTING BUDGET TERMS FOR KSTP 2147 AND KPER 2 TO BUDGET FILE TERMS FROM KSTP 1 AND KPER 2

end timestep


start timestep kper="2" kstp="2148" mode="normal"


 FMI SETTING BUDGET TERMS FOR KSTP 2148 AND KPER 2 TO BUDGET FILE TERMS FROM KSTP 1 AND KPER 2

 FMI SETTING HEAD FOR KSTP 2148 AND KPER 2 TO BINARY FILE HEADS FROM KSTP 1 AND KPER 2

 SFR-1 SETTING BUDGET TERMS FOR KSTP 2148 AND KPER 2 TO BUDGET FILE TERMS FROM KSTP 1 AND KPER 2

end timestep


start timestep kper="2" kstp="2149" mode="normal"


 FMI SETTING BUDGET TERMS FOR KSTP 2149 AND KPER 2 TO BUDGET FILE TERMS FROM KSTP 1 AND KPER 2

 FMI SETTING HEAD FOR KSTP 2149 AND KPER 2 TO BINARY FILE HEADS FROM KSTP 1 AND KPER 2

 SFR-1 SETTING BUDGET TERMS FOR KSTP 2149 AND KPER 2 TO BUDGET FILE TERMS FROM KSTP 1 AND KPER 2

end timestep


start timestep kper="2" kstp="2150" mode="normal"


 FMI SETTING BUDGET TERMS FOR KSTP 2150 AND KPER 2 TO BUDGET FILE TERMS FROM KSTP 1 AND KPER 2

 FMI SETTING HEAD FOR KSTP 2150 AND KPER 2 TO BINARY FILE HEADS FROM KSTP 1 AND KPER 2

 SFR-1 SETTING BUDGET TERMS FOR KSTP 2150 AND KPER 2 TO BUDGET FILE TERMS FROM KSTP 1 AND KPER 2

 CONCENTRATION WILL BE SAVED ON UNIT 1024 AT END OF TIME STEP 2150, STRESS PERIOD    2

end timestep


start timestep kper="2" kstp="2151" mode="normal"


 FMI SETTING BUDGET TERMS FOR KSTP 2151 AND KPER 2 TO BUDGET FILE TERMS FROM KSTP 1 AND KPER 2

 FMI SETTING HEAD FOR KSTP 2151 AND KPER 2 TO BINARY FILE HEADS FROM KSTP 1 AND KPER 2

 SFR-1 SETTING BUDGET TERMS FOR KSTP 2151 AND KPER 2 TO BUDGET FILE TERMS FROM KSTP 1 AND KPER 2

end timestep


start timestep kper="2" kstp="2152" mode="normal"


 FMI SETTING BUDGET TERMS FOR KSTP 2152 AND KPER 2 TO BUDGET FILE TERMS FROM KSTP 1 AND KPER 2

 FMI SETTING HEAD FOR KSTP 2152 AND KPER 2 TO BINARY FILE HEADS FROM KSTP 1 AND KPER 2

 SFR-1 SETTING BUDGET TERMS FOR KSTP 2152 AND KPER 2 TO BUDGET FILE TERMS FROM KSTP 1 AND KPER 2

end timestep


start timestep kper="2" kstp="2153" mode="normal"


 FMI SETTING BUDGET TERMS FOR KSTP 2153 AND KPER 2 TO BUDGET FILE TERMS FROM KSTP 1 AND KPER 2

 FMI SETTING HEAD FOR KSTP 2153 AND KPER 2 TO BINARY FILE HEADS FROM KSTP 1 AND KPER 2

 SFR-1 SETTING BUDGET TERMS FOR KSTP 2153 AND KPER 2 TO BUDGET FILE TERMS FROM KSTP 1 AND KPER 2

end timestep


start timestep kper="2" kstp="2154" mode="normal"


 FMI SETTING BUDGET TERMS FOR KSTP 2154 AND KPER 2 TO BUDGET FILE TERMS FROM KSTP 1 AND KPER 2

 FMI SETTING HEAD FOR KSTP 2154 AND KPER 2 TO BINARY FILE HEADS FROM KSTP 1 AND KPER 2

 SFR-1 SETTING BUDGET TERMS FOR KSTP 2154 AND KPER 2 TO BUDGET FILE TERMS FROM KSTP 1 AND KPER 2

end timestep


start timestep kper="2" kstp="2155" mode="normal"


 FMI SETTING BUDGET TERMS FOR KSTP 2155 AND KPER 2 TO BUDGET FILE TERMS FROM KSTP 1 AND KPER 2

 FMI SETTING HEAD FOR KSTP 2155 AND KPER 2 TO BINARY FILE HEADS FROM KSTP 1 AND KPER 2

 SFR-1 SETTING BUDGET TERMS FOR KSTP 2155 AND KPER 2 TO BUDGET FILE TERMS FROM KSTP 1 AND KPER 2

end timestep


start timestep kper="2" kstp="2156" mode="normal"


 FMI SETTING BUDGET TERMS FOR KSTP 2156 AND KPER 2 TO BUDGET FILE TERMS FROM KSTP 1 AND KPER 2

 FMI SETTING HEAD FOR KSTP 2156 AND KPER 2 TO BINARY FILE HEADS FROM KSTP 1 AND KPER 2

 SFR-1 SETTING BUDGET TERMS FOR KSTP 2156 AND KPER 2 TO BUDGET FILE TERMS FROM KSTP 1 AND KPER 2

end timestep


start timestep kper="2" kstp="2157" mode="normal"


 FMI SETTING BUDGET TERMS FOR KSTP 2157 AND KPER 2 TO BUDGET FILE TERMS FROM KSTP 1 AND KPER 2

 FMI SETTING HEAD FOR KSTP 2157 AND KPER 2 TO BINARY FILE HEADS FROM KSTP 1 AND KPER 2

 SFR-1 SETTING BUDGET TERMS FOR KSTP 2157 AND KPER 2 TO BUDGET FILE TERMS FROM KSTP 1 AND KPER 2

end timestep


start timestep kper="2" kstp="2158" mode="normal"


 FMI SETTING BUDGET TERMS FOR KSTP 2158 AND KPER 2 TO BUDGET FILE TERMS FROM KSTP 1 AND KPER 2

 FMI SETTING HEAD FOR KSTP 2158 AND KPER 2 TO BINARY FILE HEADS FROM KSTP 1 AND KPER 2

 SFR-1 SETTING BUDGET TERMS FOR KSTP 2158 AND KPER 2 TO BUDGET FILE TERMS FROM KSTP 1 AND KPER 2

end timestep


start timestep kper="2" kstp="2159" mode="normal"


 FMI SETTING BUDGET TERMS FOR KSTP 2159 AND KPER 2 TO BUDGET FILE TERMS FROM KSTP 1 AND KPER 2

 FMI SETTING HEAD FOR KSTP 2159 AND KPER 2 TO BINARY FILE HEADS FROM KSTP 1 AND KPER 2

 SFR-1 SETTING BUDGET TERMS FOR KSTP 2159 AND KPER 2 TO BUDGET FILE TERMS FROM KSTP 1 AND KPER 2

end timestep


start timestep kper="2" kstp="2160" mode="normal"


 FMI SETTING BUDGET TERMS FOR KSTP 2160 AND KPER 2 TO BUDGET FILE TERMS FROM KSTP 1 AND KPER 2

 FMI SETTING HEAD FOR KSTP 2160 AND KPER 2 TO BINARY FILE HEADS FROM KSTP 1 AND KPER 2

 SFR-1 SETTING BUDGET TERMS FOR KSTP 2160 AND KPER 2 TO BUDGET FILE TERMS FROM KSTP 1 AND KPER 2

 CONCENTRATION WILL BE SAVED ON UNIT 1024 AT END OF TIME STEP 2160, STRESS PERIOD    2

end timestep


start timestep kper="2" kstp="2161" mode="normal"


 FMI SETTING BUDGET TERMS FOR KSTP 2161 AND KPER 2 TO BUDGET FILE TERMS FROM KSTP 1 AND KPER 2

 FMI SETTING HEAD FOR KSTP 2161 AND KPER 2 TO BINARY FILE HEADS FROM KSTP 1 AND KPER 2

 SFR-1 SETTING BUDGET TERMS FOR KSTP 2161 AND KPER 2 TO BUDGET FILE TERMS FROM KSTP 1 AND KPER 2

end timestep


start timestep kper="2" kstp="2162" mode="normal"


 FMI SETTING BUDGET TERMS FOR KSTP 2162 AND KPER 2 TO BUDGET FILE TERMS FROM KSTP 1 AND KPER 2

 FMI SETTING HEAD FOR KSTP 2162 AND KPER 2 TO BINARY FILE HEADS FROM KSTP 1 AND KPER 2

 SFR-1 SETTING BUDGET TERMS FOR KSTP 2162 AND KPER 2 TO BUDGET FILE TERMS FROM KSTP 1 AND KPER 2

end timestep


start timestep kper="2" kstp="2163" mode="normal"


 FMI SETTING BUDGET TERMS FOR KSTP 2163 AND KPER 2 TO BUDGET FILE TERMS FROM KSTP 1 AND KPER 2

 FMI SETTING HEAD FOR KSTP 2163 AND KPER 2 TO BINARY FILE HEADS FROM KSTP 1 AND KPER 2

 SFR-1 SETTING BUDGET TERMS FOR KSTP 2163 AND KPER 2 TO BUDGET FILE TERMS FROM KSTP 1 AND KPER 2

end timestep


start timestep kper="2" kstp="2164" mode="normal"


 FMI SETTING BUDGET TERMS FOR KSTP 2164 AND KPER 2 TO BUDGET FILE TERMS FROM KSTP 1 AND KPER 2

 FMI SETTING HEAD FOR KSTP 2164 AND KPER 2 TO BINARY FILE HEADS FROM KSTP 1 AND KPER 2

 SFR-1 SETTING BUDGET TERMS FOR KSTP 2164 AND KPER 2 TO BUDGET FILE TERMS FROM KSTP 1 AND KPER 2

end timestep


start timestep kper="2" kstp="2165" mode="normal"


 FMI SETTING BUDGET TERMS FOR KSTP 2165 AND KPER 2 TO BUDGET FILE TERMS FROM KSTP 1 AND KPER 2

 FMI SETTING HEAD FOR KSTP 2165 AND KPER 2 TO BINARY FILE HEADS FROM KSTP 1 AND KPER 2

 SFR-1 SETTING BUDGET TERMS FOR KSTP 2165 AND KPER 2 TO BUDGET FILE TERMS FROM KSTP 1 AND KPER 2

end timestep


start timestep kper="2" kstp="2166" mode="normal"


 FMI SETTING BUDGET TERMS FOR KSTP 2166 AND KPER 2 TO BUDGET FILE TERMS FROM KSTP 1 AND KPER 2

 FMI SETTING HEAD FOR KSTP 2166 AND KPER 2 TO BINARY FILE HEADS FROM KSTP 1 AND KPER 2

 SFR-1 SETTING BUDGET TERMS FOR KSTP 2166 AND KPER 2 TO BUDGET FILE TERMS FROM KSTP 1 AND KPER 2

end timestep


start timestep kper="2" kstp="2167" mode="normal"


 FMI SETTING BUDGET TERMS FOR KSTP 2167 AND KPER 2 TO BUDGET FILE TERMS FROM KSTP 1 AND KPER 2

 FMI SETTING HEAD FOR KSTP 2167 AND KPER 2 TO BINARY FILE HEADS FROM KSTP 1 AND KPER 2

 SFR-1 SETTING BUDGET TERMS FOR KSTP 2167 AND KPER 2 TO BUDGET FILE TERMS FROM KSTP 1 AND KPER 2

end timestep


start timestep kper="2" kstp="2168" mode="normal"


 FMI SETTING BUDGET TERMS FOR KSTP 2168 AND KPER 2 TO BUDGET FILE TERMS FROM KSTP 1 AND KPER 2

 FMI SETTING HEAD FOR KSTP 2168 AND KPER 2 TO BINARY FILE HEADS FROM KSTP 1 AND KPER 2

 SFR-1 SETTING BUDGET TERMS FOR KSTP 2168 AND KPER 2 TO BUDGET FILE TERMS FROM KSTP 1 AND KPER 2

end timestep


start timestep kper="2" kstp="2169" mode="normal"


 FMI SETTING BUDGET TERMS FOR KSTP 2169 AND KPER 2 TO BUDGET FILE TERMS FROM KSTP 1 AND KPER 2

 FMI SETTING HEAD FOR KSTP 2169 AND KPER 2 TO BINARY FILE HEADS FROM KSTP 1 AND KPER 2

 SFR-1 SETTING BUDGET TERMS FOR KSTP 2169 AND KPER 2 TO BUDGET FILE TERMS FROM KSTP 1 AND KPER 2

end timestep


start timestep kper="2" kstp="2170" mode="normal"


 FMI SETTING BUDGET TERMS FOR KSTP 2170 AND KPER 2 TO BUDGET FILE TERMS FROM KSTP 1 AND KPER 2

 FMI SETTING HEAD FOR KSTP 2170 AND KPER 2 TO BINARY FILE HEADS FROM KSTP 1 AND KPER 2

 SFR-1 SETTING BUDGET TERMS FOR KSTP 2170 AND KPER 2 TO BUDGET FILE TERMS FROM KSTP 1 AND KPER 2

 CONCENTRATION WILL BE SAVED ON UNIT 1024 AT END OF TIME STEP 2170, STRESS PERIOD    2

end timestep


start timestep kper="2" kstp="2171" mode="normal"


 FMI SETTING BUDGET TERMS FOR KSTP 2171 AND KPER 2 TO BUDGET FILE TERMS FROM KSTP 1 AND KPER 2

 FMI SETTING HEAD FOR KSTP 2171 AND KPER 2 TO BINARY FILE HEADS FROM KSTP 1 AND KPER 2

 SFR-1 SETTING BUDGET TERMS FOR KSTP 2171 AND KPER 2 TO BUDGET FILE TERMS FROM KSTP 1 AND KPER 2

end timestep


start timestep kper="2" kstp="2172" mode="normal"


 FMI SETTING BUDGET TERMS FOR KSTP 2172 AND KPER 2 TO BUDGET FILE TERMS FROM KSTP 1 AND KPER 2

 FMI SETTING HEAD FOR KSTP 2172 AND KPER 2 TO BINARY FILE HEADS FROM KSTP 1 AND KPER 2

 SFR-1 SETTING BUDGET TERMS FOR KSTP 2172 AND KPER 2 TO BUDGET FILE TERMS FROM KSTP 1 AND KPER 2

end timestep


start timestep kper="2" kstp="2173" mode="normal"


 FMI SETTING BUDGET TERMS FOR KSTP 2173 AND KPER 2 TO BUDGET FILE TERMS FROM KSTP 1 AND KPER 2

 FMI SETTING HEAD FOR KSTP 2173 AND KPER 2 TO BINARY FILE HEADS FROM KSTP 1 AND KPER 2

 SFR-1 SETTING BUDGET TERMS FOR KSTP 2173 AND KPER 2 TO BUDGET FILE TERMS FROM KSTP 1 AND KPER 2

end timestep


start timestep kper="2" kstp="2174" mode="normal"


 FMI SETTING BUDGET TERMS FOR KSTP 2174 AND KPER 2 TO BUDGET FILE TERMS FROM KSTP 1 AND KPER 2

 FMI SETTING HEAD FOR KSTP 2174 AND KPER 2 TO BINARY FILE HEADS FROM KSTP 1 AND KPER 2

 SFR-1 SETTING BUDGET TERMS FOR KSTP 2174 AND KPER 2 TO BUDGET FILE TERMS FROM KSTP 1 AND KPER 2

end timestep


start timestep kper="2" kstp="2175" mode="normal"


 FMI SETTING BUDGET TERMS FOR KSTP 2175 AND KPER 2 TO BUDGET FILE TERMS FROM KSTP 1 AND KPER 2

 FMI SETTING HEAD FOR KSTP 2175 AND KPER 2 TO BINARY FILE HEADS FROM KSTP 1 AND KPER 2

 SFR-1 SETTING BUDGET TERMS FOR KSTP 2175 AND KPER 2 TO BUDGET FILE TERMS FROM KSTP 1 AND KPER 2

end timestep


start timestep kper="2" kstp="2176" mode="normal"


 FMI SETTING BUDGET TERMS FOR KSTP 2176 AND KPER 2 TO BUDGET FILE TERMS FROM KSTP 1 AND KPER 2

 FMI SETTING HEAD FOR KSTP 2176 AND KPER 2 TO BINARY FILE HEADS FROM KSTP 1 AND KPER 2

 SFR-1 SETTING BUDGET TERMS FOR KSTP 2176 AND KPER 2 TO BUDGET FILE TERMS FROM KSTP 1 AND KPER 2

end timestep


start timestep kper="2" kstp="2177" mode="normal"


 FMI SETTING BUDGET TERMS FOR KSTP 2177 AND KPER 2 TO BUDGET FILE TERMS FROM KSTP 1 AND KPER 2

 FMI SETTING HEAD FOR KSTP 2177 AND KPER 2 TO BINARY FILE HEADS FROM KSTP 1 AND KPER 2

 SFR-1 SETTING BUDGET TERMS FOR KSTP 2177 AND KPER 2 TO BUDGET FILE TERMS FROM KSTP 1 AND KPER 2

end timestep


start timestep kper="2" kstp="2178" mode="normal"


 FMI SETTING BUDGET TERMS FOR KSTP 2178 AND KPER 2 TO BUDGET FILE TERMS FROM KSTP 1 AND KPER 2

 FMI SETTING HEAD FOR KSTP 2178 AND KPER 2 TO BINARY FILE HEADS FROM KSTP 1 AND KPER 2

 SFR-1 SETTING BUDGET TERMS FOR KSTP 2178 AND KPER 2 TO BUDGET FILE TERMS FROM KSTP 1 AND KPER 2

end timestep


start timestep kper="2" kstp="2179" mode="normal"


 FMI SETTING BUDGET TERMS FOR KSTP 2179 AND KPER 2 TO BUDGET FILE TERMS FROM KSTP 1 AND KPER 2

 FMI SETTING HEAD FOR KSTP 2179 AND KPER 2 TO BINARY FILE HEADS FROM KSTP 1 AND KPER 2

 SFR-1 SETTING BUDGET TERMS FOR KSTP 2179 AND KPER 2 TO BUDGET FILE TERMS FROM KSTP 1 AND KPER 2

end timestep


start timestep kper="2" kstp="2180" mode="normal"


 FMI SETTING BUDGET TERMS FOR KSTP 2180 AND KPER 2 TO BUDGET FILE TERMS FROM KSTP 1 AND KPER 2

 FMI SETTING HEAD FOR KSTP 2180 AND KPER 2 TO BINARY FILE HEADS FROM KSTP 1 AND KPER 2

 SFR-1 SETTING BUDGET TERMS FOR KSTP 2180 AND KPER 2 TO BUDGET FILE TERMS FROM KSTP 1 AND KPER 2

 CONCENTRATION WILL BE SAVED ON UNIT 1024 AT END OF TIME STEP 2180, STRESS PERIOD    2

end timestep


start timestep kper="2" kstp="2181" mode="normal"


 FMI SETTING BUDGET TERMS FOR KSTP 2181 AND KPER 2 TO BUDGET FILE TERMS FROM KSTP 1 AND KPER 2

 FMI SETTING HEAD FOR KSTP 2181 AND KPER 2 TO BINARY FILE HEADS FROM KSTP 1 AND KPER 2

 SFR-1 SETTING BUDGET TERMS FOR KSTP 2181 AND KPER 2 TO BUDGET FILE TERMS FROM KSTP 1 AND KPER 2

end timestep


start timestep kper="2" kstp="2182" mode="normal"


 FMI SETTING BUDGET TERMS FOR KSTP 2182 AND KPER 2 TO BUDGET FILE TERMS FROM KSTP 1 AND KPER 2

 FMI SETTING HEAD FOR KSTP 2182 AND KPER 2 TO BINARY FILE HEADS FROM KSTP 1 AND KPER 2

 SFR-1 SETTING BUDGET TERMS FOR KSTP 2182 AND KPER 2 TO BUDGET FILE TERMS FROM KSTP 1 AND KPER 2

end timestep


start timestep kper="2" kstp="2183" mode="normal"


 FMI SETTING BUDGET TERMS FOR KSTP 2183 AND KPER 2 TO BUDGET FILE TERMS FROM KSTP 1 AND KPER 2

 FMI SETTING HEAD FOR KSTP 2183 AND KPER 2 TO BINARY FILE HEADS FROM KSTP 1 AND KPER 2

 SFR-1 SETTING BUDGET TERMS FOR KSTP 2183 AND KPER 2 TO BUDGET FILE TERMS FROM KSTP 1 AND KPER 2

end timestep


start timestep kper="2" kstp="2184" mode="normal"


 FMI SETTING BUDGET TERMS FOR KSTP 2184 AND KPER 2 TO BUDGET FILE TERMS FROM KSTP 1 AND KPER 2

 FMI SETTING HEAD FOR KSTP 2184 AND KPER 2 TO BINARY FILE HEADS FROM KSTP 1 AND KPER 2

 SFR-1 SETTING BUDGET TERMS FOR KSTP 2184 AND KPER 2 TO BUDGET FILE TERMS FROM KSTP 1 AND KPER 2

end timestep


start timestep kper="2" kstp="2185" mode="normal"


 FMI SETTING BUDGET TERMS FOR KSTP 2185 AND KPER 2 TO BUDGET FILE TERMS FROM KSTP 1 AND KPER 2

 FMI SETTING HEAD FOR KSTP 2185 AND KPER 2 TO BINARY FILE HEADS FROM KSTP 1 AND KPER 2

 SFR-1 SETTING BUDGET TERMS FOR KSTP 2185 AND KPER 2 TO BUDGET FILE TERMS FROM KSTP 1 AND KPER 2

end timestep


start timestep kper="2" kstp="2186" mode="normal"


 FMI SETTING BUDGET TERMS FOR KSTP 2186 AND KPER 2 TO BUDGET FILE TERMS FROM KSTP 1 AND KPER 2

 FMI SETTING HEAD FOR KSTP 2186 AND KPER 2 TO BINARY FILE HEADS FROM KSTP 1 AND KPER 2

 SFR-1 SETTING BUDGET TERMS FOR KSTP 2186 AND KPER 2 TO BUDGET FILE TERMS FROM KSTP 1 AND KPER 2

end timestep


start timestep kper="2" kstp="2187" mode="normal"


 FMI SETTING BUDGET TERMS FOR KSTP 2187 AND KPER 2 TO BUDGET FILE TERMS FROM KSTP 1 AND KPER 2

 FMI SETTING HEAD FOR KSTP 2187 AND KPER 2 TO BINARY FILE HEADS FROM KSTP 1 AND KPER 2

 SFR-1 SETTING BUDGET TERMS FOR KSTP 2187 AND KPER 2 TO BUDGET FILE TERMS FROM KSTP 1 AND KPER 2

end timestep


start timestep kper="2" kstp="2188" mode="normal"


 FMI SETTING BUDGET TERMS FOR KSTP 2188 AND KPER 2 TO BUDGET FILE TERMS FROM KSTP 1 AND KPER 2

 FMI SETTING HEAD FOR KSTP 2188 AND KPER 2 TO BINARY FILE HEADS FROM KSTP 1 AND KPER 2

 SFR-1 SETTING BUDGET TERMS FOR KSTP 2188 AND KPER 2 TO BUDGET FILE TERMS FROM KSTP 1 AND KPER 2

end timestep


start timestep kper="2" kstp="2189" mode="normal"


 FMI SETTING BUDGET TERMS FOR KSTP 2189 AND KPER 2 TO BUDGET FILE TERMS FROM KSTP 1 AND KPER 2

 FMI SETTING HEAD FOR KSTP 2189 AND KPER 2 TO BINARY FILE HEADS FROM KSTP 1 AND KPER 2

 SFR-1 SETTING BUDGET TERMS FOR KSTP 2189 AND KPER 2 TO BUDGET FILE TERMS FROM KSTP 1 AND KPER 2

end timestep


start timestep kper="2" kstp="2190" mode="normal"


 FMI SETTING BUDGET TERMS FOR KSTP 2190 AND KPER 2 TO BUDGET FILE TERMS FROM KSTP 1 AND KPER 2

 FMI SETTING HEAD FOR KSTP 2190 AND KPER 2 TO BINARY FILE HEADS FROM KSTP 1 AND KPER 2

 SFR-1 SETTING BUDGET TERMS FOR KSTP 2190 AND KPER 2 TO BUDGET FILE TERMS FROM KSTP 1 AND KPER 2

 CONCENTRATION WILL BE SAVED ON UNIT 1024 AT END OF TIME STEP 2190, STRESS PERIOD    2

end timestep


start timestep kper="2" kstp="2191" mode="normal"


 FMI SETTING BUDGET TERMS FOR KSTP 2191 AND KPER 2 TO BUDGET FILE TERMS FROM KSTP 1 AND KPER 2

 FMI SETTING HEAD FOR KSTP 2191 AND KPER 2 TO BINARY FILE HEADS FROM KSTP 1 AND KPER 2

 SFR-1 SETTING BUDGET TERMS FOR KSTP 2191 AND KPER 2 TO BUDGET FILE TERMS FROM KSTP 1 AND KPER 2

end timestep


start timestep kper="2" kstp="2192" mode="normal"


 FMI SETTING BUDGET TERMS FOR KSTP 2192 AND KPER 2 TO BUDGET FILE TERMS FROM KSTP 1 AND KPER 2

 FMI SETTING HEAD FOR KSTP 2192 AND KPER 2 TO BINARY FILE HEADS FROM KSTP 1 AND KPER 2

 SFR-1 SETTING BUDGET TERMS FOR KSTP 2192 AND KPER 2 TO BUDGET FILE TERMS FROM KSTP 1 AND KPER 2

end timestep


start timestep kper="2" kstp="2193" mode="normal"


 FMI SETTING BUDGET TERMS FOR KSTP 2193 AND KPER 2 TO BUDGET FILE TERMS FROM KSTP 1 AND KPER 2

 FMI SETTING HEAD FOR KSTP 2193 AND KPER 2 TO BINARY FILE HEADS FROM KSTP 1 AND KPER 2

 SFR-1 SETTING BUDGET TERMS FOR KSTP 2193 AND KPER 2 TO BUDGET FILE TERMS FROM KSTP 1 AND KPER 2

end timestep


start timestep kper="2" kstp="2194" mode="normal"


 FMI SETTING BUDGET TERMS FOR KSTP 2194 AND KPER 2 TO BUDGET FILE TERMS FROM KSTP 1 AND KPER 2

 FMI SETTING HEAD FOR KSTP 2194 AND KPER 2 TO BINARY FILE HEADS FROM KSTP 1 AND KPER 2

 SFR-1 SETTING BUDGET TERMS FOR KSTP 2194 AND KPER 2 TO BUDGET FILE TERMS FROM KSTP 1 AND KPER 2

end timestep


start timestep kper="2" kstp="2195" mode="normal"


 FMI SETTING BUDGET TERMS FOR KSTP 2195 AND KPER 2 TO BUDGET FILE TERMS FROM KSTP 1 AND KPER 2

 FMI SETTING HEAD FOR KSTP 2195 AND KPER 2 TO BINARY FILE HEADS FROM KSTP 1 AND KPER 2

 SFR-1 SETTING BUDGET TERMS FOR KSTP 2195 AND KPER 2 TO BUDGET FILE TERMS FROM KSTP 1 AND KPER 2

end timestep


start timestep kper="2" kstp="2196" mode="normal"


 FMI SETTING BUDGET TERMS FOR KSTP 2196 AND KPER 2 TO BUDGET FILE TERMS FROM KSTP 1 AND KPER 2

 FMI SETTING HEAD FOR KSTP 2196 AND KPER 2 TO BINARY FILE HEADS FROM KSTP 1 AND KPER 2

 SFR-1 SETTING BUDGET TERMS FOR KSTP 2196 AND KPER 2 TO BUDGET FILE TERMS FROM KSTP 1 AND KPER 2

end timestep


start timestep kper="2" kstp="2197" mode="normal"


 FMI SETTING BUDGET TERMS FOR KSTP 2197 AND KPER 2 TO BUDGET FILE TERMS FROM KSTP 1 AND KPER 2

 FMI SETTING HEAD FOR KSTP 2197 AND KPER 2 TO BINARY FILE HEADS FROM KSTP 1 AND KPER 2

 SFR-1 SETTING BUDGET TERMS FOR KSTP 2197 AND KPER 2 TO BUDGET FILE TERMS FROM KSTP 1 AND KPER 2

end timestep


start timestep kper="2" kstp="2198" mode="normal"


 FMI SETTING BUDGET TERMS FOR KSTP 2198 AND KPER 2 TO BUDGET FILE TERMS FROM KSTP 1 AND KPER 2

 FMI SETTING HEAD FOR KSTP 2198 AND KPER 2 TO BINARY FILE HEADS FROM KSTP 1 AND KPER 2

 SFR-1 SETTING BUDGET TERMS FOR KSTP 2198 AND KPER 2 TO BUDGET FILE TERMS FROM KSTP 1 AND KPER 2

end timestep


start timestep kper="2" kstp="2199" mode="normal"


 FMI SETTING BUDGET TERMS FOR KSTP 2199 AND KPER 2 TO BUDGET FILE TERMS FROM KSTP 1 AND KPER 2

 FMI SETTING HEAD FOR KSTP 2199 AND KPER 2 TO BINARY FILE HEADS FROM KSTP 1 AND KPER 2

 SFR-1 SETTING BUDGET TERMS FOR KSTP 2199 AND KPER 2 TO BUDGET FILE TERMS FROM KSTP 1 AND KPER 2

end timestep


start timestep kper="2" kstp="2200" mode="normal"


 FMI SETTING BUDGET TERMS FOR KSTP 2200 AND KPER 2 TO BUDGET FILE TERMS FROM KSTP 1 AND KPER 2

 FMI SETTING HEAD FOR KSTP 2200 AND KPER 2 TO BINARY FILE HEADS FROM KSTP 1 AND KPER 2

 SFR-1 SETTING BUDGET TERMS FOR KSTP 2200 AND KPER 2 TO BUDGET FILE TERMS FROM KSTP 1 AND KPER 2

 CONCENTRATION WILL BE SAVED ON UNIT 1024 AT END OF TIME STEP 2200, STRESS PERIOD    2

end timestep


start timestep kper="2" kstp="2201" mode="normal"


 FMI SETTING BUDGET TERMS FOR KSTP 2201 AND KPER 2 TO BUDGET FILE TERMS FROM KSTP 1 AND KPER 2

 FMI SETTING HEAD FOR KSTP 2201 AND KPER 2 TO BINARY FILE HEADS FROM KSTP 1 AND KPER 2

 SFR-1 SETTING BUDGET TERMS FOR KSTP 2201 AND KPER 2 TO BUDGET FILE TERMS FROM KSTP 1 AND KPER 2

end timestep


start timestep kper="2" kstp="2202" mode="normal"


 FMI SETTING BUDGET TERMS FOR KSTP 2202 AND KPER 2 TO BUDGET FILE TERMS FROM KSTP 1 AND KPER 2

 FMI SETTING HEAD FOR KSTP 2202 AND KPER 2 TO BINARY FILE HEADS FROM KSTP 1 AND KPER 2

 SFR-1 SETTING BUDGET TERMS FOR KSTP 2202 AND KPER 2 TO BUDGET FILE TERMS FROM KSTP 1 AND KPER 2

end timestep


start timestep kper="2" kstp="2203" mode="normal"


 FMI SETTING BUDGET TERMS FOR KSTP 2203 AND KPER 2 TO BUDGET FILE TERMS FROM KSTP 1 AND KPER 2

 FMI SETTING HEAD FOR KSTP 2203 AND KPER 2 TO BINARY FILE HEADS FROM KSTP 1 AND KPER 2

 SFR-1 SETTING BUDGET TERMS FOR KSTP 2203 AND KPER 2 TO BUDGET FILE TERMS FROM KSTP 1 AND KPER 2

end timestep


start timestep kper="2" kstp="2204" mode="normal"


 FMI SETTING BUDGET TERMS FOR KSTP 2204 AND KPER 2 TO BUDGET FILE TERMS FROM KSTP 1 AND KPER 2

 FMI SETTING HEAD FOR KSTP 2204 AND KPER 2 TO BINARY FILE HEADS FROM KSTP 1 AND KPER 2

 SFR-1 SETTING BUDGET TERMS FOR KSTP 2204 AND KPER 2 TO BUDGET FILE TERMS FROM KSTP 1 AND KPER 2

end timestep


start timestep kper="2" kstp="2205" mode="normal"


 FMI SETTING BUDGET TERMS FOR KSTP 2205 AND KPER 2 TO BUDGET FILE TERMS FROM KSTP 1 AND KPER 2

 FMI SETTING HEAD FOR KSTP 2205 AND KPER 2 TO BINARY FILE HEADS FROM KSTP 1 AND KPER 2

 SFR-1 SETTING BUDGET TERMS FOR KSTP 2205 AND KPER 2 TO BUDGET FILE TERMS FROM KSTP 1 AND KPER 2

end timestep


start timestep kper="2" kstp="2206" mode="normal"


 FMI SETTING BUDGET TERMS FOR KSTP 2206 AND KPER 2 TO BUDGET FILE TERMS FROM KSTP 1 AND KPER 2

 FMI SETTING HEAD FOR KSTP 2206 AND KPER 2 TO BINARY FILE HEADS FROM KSTP 1 AND KPER 2

 SFR-1 SETTING BUDGET TERMS FOR KSTP 2206 AND KPER 2 TO BUDGET FILE TERMS FROM KSTP 1 AND KPER 2

end timestep


start timestep kper="2" kstp="2207" mode="normal"


 FMI SETTING BUDGET TERMS FOR KSTP 2207 AND KPER 2 TO BUDGET FILE TERMS FROM KSTP 1 AND KPER 2

 FMI SETTING HEAD FOR KSTP 2207 AND KPER 2 TO BINARY FILE HEADS FROM KSTP 1 AND KPER 2

 SFR-1 SETTING BUDGET TERMS FOR KSTP 2207 AND KPER 2 TO BUDGET FILE TERMS FROM KSTP 1 AND KPER 2

end timestep


start timestep kper="2" kstp="2208" mode="normal"


 FMI SETTING BUDGET TERMS FOR KSTP 2208 AND KPER 2 TO BUDGET FILE TERMS FROM KSTP 1 AND KPER 2

 FMI SETTING HEAD FOR KSTP 2208 AND KPER 2 TO BINARY FILE HEADS FROM KSTP 1 AND KPER 2

 SFR-1 SETTING BUDGET TERMS FOR KSTP 2208 AND KPER 2 TO BUDGET FILE TERMS FROM KSTP 1 AND KPER 2

end timestep


start timestep kper="2" kstp="2209" mode="normal"


 FMI SETTING BUDGET TERMS FOR KSTP 2209 AND KPER 2 TO BUDGET FILE TERMS FROM KSTP 1 AND KPER 2

 FMI SETTING HEAD FOR KSTP 2209 AND KPER 2 TO BINARY FILE HEADS FROM KSTP 1 AND KPER 2

 SFR-1 SETTING BUDGET TERMS FOR KSTP 2209 AND KPER 2 TO BUDGET FILE TERMS FROM KSTP 1 AND KPER 2

end timestep


start timestep kper="2" kstp="2210" mode="normal"


 FMI SETTING BUDGET TERMS FOR KSTP 2210 AND KPER 2 TO BUDGET FILE TERMS FROM KSTP 1 AND KPER 2

 FMI SETTING HEAD FOR KSTP 2210 AND KPER 2 TO BINARY FILE HEADS FROM KSTP 1 AND KPER 2

 SFR-1 SETTING BUDGET TERMS FOR KSTP 2210 AND KPER 2 TO BUDGET FILE TERMS FROM KSTP 1 AND KPER 2

 CONCENTRATION WILL BE SAVED ON UNIT 1024 AT END OF TIME STEP 2210, STRESS PERIOD    2

end timestep


start timestep kper="2" kstp="2211" mode="normal"


 FMI SETTING BUDGET TERMS FOR KSTP 2211 AND KPER 2 TO BUDGET FILE TERMS FROM KSTP 1 AND KPER 2

 FMI SETTING HEAD FOR KSTP 2211 AND KPER 2 TO BINARY FILE HEADS FROM KSTP 1 AND KPER 2

 SFR-1 SETTING BUDGET TERMS FOR KSTP 2211 AND KPER 2 TO BUDGET FILE TERMS FROM KSTP 1 AND KPER 2

end timestep


start timestep kper="2" kstp="2212" mode="normal"


 FMI SETTING BUDGET TERMS FOR KSTP 2212 AND KPER 2 TO BUDGET FILE TERMS FROM KSTP 1 AND KPER 2

 FMI SETTING HEAD FOR KSTP 2212 AND KPER 2 TO BINARY FILE HEADS FROM KSTP 1 AND KPER 2

 SFR-1 SETTING BUDGET TERMS FOR KSTP 2212 AND KPER 2 TO BUDGET FILE TERMS FROM KSTP 1 AND KPER 2

end timestep


start timestep kper="2" kstp="2213" mode="normal"


 FMI SETTING BUDGET TERMS FOR KSTP 2213 AND KPER 2 TO BUDGET FILE TERMS FROM KSTP 1 AND KPER 2

 FMI SETTING HEAD FOR KSTP 2213 AND KPER 2 TO BINARY FILE HEADS FROM KSTP 1 AND KPER 2

 SFR-1 SETTING BUDGET TERMS FOR KSTP 2213 AND KPER 2 TO BUDGET FILE TERMS FROM KSTP 1 AND KPER 2

end timestep


start timestep kper="2" kstp="2214" mode="normal"


 FMI SETTING BUDGET TERMS FOR KSTP 2214 AND KPER 2 TO BUDGET FILE TERMS FROM KSTP 1 AND KPER 2

 FMI SETTING HEAD FOR KSTP 2214 AND KPER 2 TO BINARY FILE HEADS FROM KSTP 1 AND KPER 2

 SFR-1 SETTING BUDGET TERMS FOR KSTP 2214 AND KPER 2 TO BUDGET FILE TERMS FROM KSTP 1 AND KPER 2

end timestep


start timestep kper="2" kstp="2215" mode="normal"


 FMI SETTING BUDGET TERMS FOR KSTP 2215 AND KPER 2 TO BUDGET FILE TERMS FROM KSTP 1 AND KPER 2

 FMI SETTING HEAD FOR KSTP 2215 AND KPER 2 TO BINARY FILE HEADS FROM KSTP 1 AND KPER 2

 SFR-1 SETTING BUDGET TERMS FOR KSTP 2215 AND KPER 2 TO BUDGET FILE TERMS FROM KSTP 1 AND KPER 2

end timestep


start timestep kper="2" kstp="2216" mode="normal"


 FMI SETTING BUDGET TERMS FOR KSTP 2216 AND KPER 2 TO BUDGET FILE TERMS FROM KSTP 1 AND KPER 2

 FMI SETTING HEAD FOR KSTP 2216 AND KPER 2 TO BINARY FILE HEADS FROM KSTP 1 AND KPER 2

 SFR-1 SETTING BUDGET TERMS FOR KSTP 2216 AND KPER 2 TO BUDGET FILE TERMS FROM KSTP 1 AND KPER 2

end timestep


start timestep kper="2" kstp="2217" mode="normal"


 FMI SETTING BUDGET TERMS FOR KSTP 2217 AND KPER 2 TO BUDGET FILE TERMS FROM KSTP 1 AND KPER 2

 FMI SETTING HEAD FOR KSTP 2217 AND KPER 2 TO BINARY FILE HEADS FROM KSTP 1 AND KPER 2

 SFR-1 SETTING BUDGET TERMS FOR KSTP 2217 AND KPER 2 TO BUDGET FILE TERMS FROM KSTP 1 AND KPER 2

end timestep


start timestep kper="2" kstp="2218" mode="normal"


 FMI SETTING BUDGET TERMS FOR KSTP 2218 AND KPER 2 TO BUDGET FILE TERMS FROM KSTP 1 AND KPER 2

 FMI SETTING HEAD FOR KSTP 2218 AND KPER 2 TO BINARY FILE HEADS FROM KSTP 1 AND KPER 2

 SFR-1 SETTING BUDGET TERMS FOR KSTP 2218 AND KPER 2 TO BUDGET FILE TERMS FROM KSTP 1 AND KPER 2

end timestep


start timestep kper="2" kstp="2219" mode="normal"


 FMI SETTING BUDGET TERMS FOR KSTP 2219 AND KPER 2 TO BUDGET FILE TERMS FROM KSTP 1 AND KPER 2

 FMI SETTING HEAD FOR KSTP 2219 AND KPER 2 TO BINARY FILE HEADS FROM KSTP 1 AND KPER 2

 SFR-1 SETTING BUDGET TERMS FOR KSTP 2219 AND KPER 2 TO BUDGET FILE TERMS FROM KSTP 1 AND KPER 2

end timestep


start timestep kper="2" kstp="2220" mode="normal"


 FMI SETTING BUDGET TERMS FOR KSTP 2220 AND KPER 2 TO BUDGET FILE TERMS FROM KSTP 1 AND KPER 2

 FMI SETTING HEAD FOR KSTP 2220 AND KPER 2 TO BINARY FILE HEADS FROM KSTP 1 AND KPER 2

 SFR-1 SETTING BUDGET TERMS FOR KSTP 2220 AND KPER 2 TO BUDGET FILE TERMS FROM KSTP 1 AND KPER 2

 CONCENTRATION WILL BE SAVED ON UNIT 1024 AT END OF TIME STEP 2220, STRESS PERIOD    2

end timestep


start timestep kper="2" kstp="2221" mode="normal"


 FMI SETTING BUDGET TERMS FOR KSTP 2221 AND KPER 2 TO BUDGET FILE TERMS FROM KSTP 1 AND KPER 2

 FMI SETTING HEAD FOR KSTP 2221 AND KPER 2 TO BINARY FILE HEADS FROM KSTP 1 AND KPER 2

 SFR-1 SETTING BUDGET TERMS FOR KSTP 2221 AND KPER 2 TO BUDGET FILE TERMS FROM KSTP 1 AND KPER 2

end timestep


start timestep kper="2" kstp="2222" mode="normal"


 FMI SETTING BUDGET TERMS FOR KSTP 2222 AND KPER 2 TO BUDGET FILE TERMS FROM KSTP 1 AND KPER 2

 FMI SETTING HEAD FOR KSTP 2222 AND KPER 2 TO BINARY FILE HEADS FROM KSTP 1 AND KPER 2

 SFR-1 SETTING BUDGET TERMS FOR KSTP 2222 AND KPER 2 TO BUDGET FILE TERMS FROM KSTP 1 AND KPER 2

end timestep


start timestep kper="2" kstp="2223" mode="normal"


 FMI SETTING BUDGET TERMS FOR KSTP 2223 AND KPER 2 TO BUDGET FILE TERMS FROM KSTP 1 AND KPER 2

 FMI SETTING HEAD FOR KSTP 2223 AND KPER 2 TO BINARY FILE HEADS FROM KSTP 1 AND KPER 2

 SFR-1 SETTING BUDGET TERMS FOR KSTP 2223 AND KPER 2 TO BUDGET FILE TERMS FROM KSTP 1 AND KPER 2

end timestep


start timestep kper="2" kstp="2224" mode="normal"


 FMI SETTING BUDGET TERMS FOR KSTP 2224 AND KPER 2 TO BUDGET FILE TERMS FROM KSTP 1 AND KPER 2

 FMI SETTING HEAD FOR KSTP 2224 AND KPER 2 TO BINARY FILE HEADS FROM KSTP 1 AND KPER 2

 SFR-1 SETTING BUDGET TERMS FOR KSTP 2224 AND KPER 2 TO BUDGET FILE TERMS FROM KSTP 1 AND KPER 2

end timestep


start timestep kper="2" kstp="2225" mode="normal"


 FMI SETTING BUDGET TERMS FOR KSTP 2225 AND KPER 2 TO BUDGET FILE TERMS FROM KSTP 1 AND KPER 2

 FMI SETTING HEAD FOR KSTP 2225 AND KPER 2 TO BINARY FILE HEADS FROM KSTP 1 AND KPER 2

 SFR-1 SETTING BUDGET TERMS FOR KSTP 2225 AND KPER 2 TO BUDGET FILE TERMS FROM KSTP 1 AND KPER 2

end timestep


start timestep kper="2" kstp="2226" mode="normal"


 FMI SETTING BUDGET TERMS FOR KSTP 2226 AND KPER 2 TO BUDGET FILE TERMS FROM KSTP 1 AND KPER 2

 FMI SETTING HEAD FOR KSTP 2226 AND KPER 2 TO BINARY FILE HEADS FROM KSTP 1 AND KPER 2

 SFR-1 SETTING BUDGET TERMS FOR KSTP 2226 AND KPER 2 TO BUDGET FILE TERMS FROM KSTP 1 AND KPER 2

end timestep


start timestep kper="2" kstp="2227" mode="normal"


 FMI SETTING BUDGET TERMS FOR KSTP 2227 AND KPER 2 TO BUDGET FILE TERMS FROM KSTP 1 AND KPER 2

 FMI SETTING HEAD FOR KSTP 2227 AND KPER 2 TO BINARY FILE HEADS FROM KSTP 1 AND KPER 2

 SFR-1 SETTING BUDGET TERMS FOR KSTP 2227 AND KPER 2 TO BUDGET FILE TERMS FROM KSTP 1 AND KPER 2

end timestep


start timestep kper="2" kstp="2228" mode="normal"


 FMI SETTING BUDGET TERMS FOR KSTP 2228 AND KPER 2 TO BUDGET FILE TERMS FROM KSTP 1 AND KPER 2

 FMI SETTING HEAD FOR KSTP 2228 AND KPER 2 TO BINARY FILE HEADS FROM KSTP 1 AND KPER 2

 SFR-1 SETTING BUDGET TERMS FOR KSTP 2228 AND KPER 2 TO BUDGET FILE TERMS FROM KSTP 1 AND KPER 2

end timestep


start timestep kper="2" kstp="2229" mode="normal"


 FMI SETTING BUDGET TERMS FOR KSTP 2229 AND KPER 2 TO BUDGET FILE TERMS FROM KSTP 1 AND KPER 2

 FMI SETTING HEAD FOR KSTP 2229 AND KPER 2 TO BINARY FILE HEADS FROM KSTP 1 AND KPER 2

 SFR-1 SETTING BUDGET TERMS FOR KSTP 2229 AND KPER 2 TO BUDGET FILE TERMS FROM KSTP 1 AND KPER 2

end timestep


start timestep kper="2" kstp="2230" mode="normal"


 FMI SETTING BUDGET TERMS FOR KSTP 2230 AND KPER 2 TO BUDGET FILE TERMS FROM KSTP 1 AND KPER 2

 FMI SETTING HEAD FOR KSTP 2230 AND KPER 2 TO BINARY FILE HEADS FROM KSTP 1 AND KPER 2

 SFR-1 SETTING BUDGET TERMS FOR KSTP 2230 AND KPER 2 TO BUDGET FILE TERMS FROM KSTP 1 AND KPER 2

 CONCENTRATION WILL BE SAVED ON UNIT 1024 AT END OF TIME STEP 2230, STRESS PERIOD    2

end timestep


start timestep kper="2" kstp="2231" mode="normal"


 FMI SETTING BUDGET TERMS FOR KSTP 2231 AND KPER 2 TO BUDGET FILE TERMS FROM KSTP 1 AND KPER 2

 FMI SETTING HEAD FOR KSTP 2231 AND KPER 2 TO BINARY FILE HEADS FROM KSTP 1 AND KPER 2

 SFR-1 SETTING BUDGET TERMS FOR KSTP 2231 AND KPER 2 TO BUDGET FILE TERMS FROM KSTP 1 AND KPER 2

end timestep


start timestep kper="2" kstp="2232" mode="normal"


 FMI SETTING BUDGET TERMS FOR KSTP 2232 AND KPER 2 TO BUDGET FILE TERMS FROM KSTP 1 AND KPER 2

 FMI SETTING HEAD FOR KSTP 2232 AND KPER 2 TO BINARY FILE HEADS FROM KSTP 1 AND KPER 2

 SFR-1 SETTING BUDGET TERMS FOR KSTP 2232 AND KPER 2 TO BUDGET FILE TERMS FROM KSTP 1 AND KPER 2

end timestep


start timestep kper="2" kstp="2233" mode="normal"


 FMI SETTING BUDGET TERMS FOR KSTP 2233 AND KPER 2 TO BUDGET FILE TERMS FROM KSTP 1 AND KPER 2

 FMI SETTING HEAD FOR KSTP 2233 AND KPER 2 TO BINARY FILE HEADS FROM KSTP 1 AND KPER 2

 SFR-1 SETTING BUDGET TERMS FOR KSTP 2233 AND KPER 2 TO BUDGET FILE TERMS FROM KSTP 1 AND KPER 2

end timestep


start timestep kper="2" kstp="2234" mode="normal"


 FMI SETTING BUDGET TERMS FOR KSTP 2234 AND KPER 2 TO BUDGET FILE TERMS FROM KSTP 1 AND KPER 2

 FMI SETTING HEAD FOR KSTP 2234 AND KPER 2 TO BINARY FILE HEADS FROM KSTP 1 AND KPER 2

 SFR-1 SETTING BUDGET TERMS FOR KSTP 2234 AND KPER 2 TO BUDGET FILE TERMS FROM KSTP 1 AND KPER 2

end timestep


start timestep kper="2" kstp="2235" mode="normal"


 FMI SETTING BUDGET TERMS FOR KSTP 2235 AND KPER 2 TO BUDGET FILE TERMS FROM KSTP 1 AND KPER 2

 FMI SETTING HEAD FOR KSTP 2235 AND KPER 2 TO BINARY FILE HEADS FROM KSTP 1 AND KPER 2

 SFR-1 SETTING BUDGET TERMS FOR KSTP 2235 AND KPER 2 TO BUDGET FILE TERMS FROM KSTP 1 AND KPER 2

end timestep


start timestep kper="2" kstp="2236" mode="normal"


 FMI SETTING BUDGET TERMS FOR KSTP 2236 AND KPER 2 TO BUDGET FILE TERMS FROM KSTP 1 AND KPER 2

 FMI SETTING HEAD FOR KSTP 2236 AND KPER 2 TO BINARY FILE HEADS FROM KSTP 1 AND KPER 2

 SFR-1 SETTING BUDGET TERMS FOR KSTP 2236 AND KPER 2 TO BUDGET FILE TERMS FROM KSTP 1 AND KPER 2

end timestep


start timestep kper="2" kstp="2237" mode="normal"


 FMI SETTING BUDGET TERMS FOR KSTP 2237 AND KPER 2 TO BUDGET FILE TERMS FROM KSTP 1 AND KPER 2

 FMI SETTING HEAD FOR KSTP 2237 AND KPER 2 TO BINARY FILE HEADS FROM KSTP 1 AND KPER 2

 SFR-1 SETTING BUDGET TERMS FOR KSTP 2237 AND KPER 2 TO BUDGET FILE TERMS FROM KSTP 1 AND KPER 2

end timestep


start timestep kper="2" kstp="2238" mode="normal"


 FMI SETTING BUDGET TERMS FOR KSTP 2238 AND KPER 2 TO BUDGET FILE TERMS FROM KSTP 1 AND KPER 2

 FMI SETTING HEAD FOR KSTP 2238 AND KPER 2 TO BINARY FILE HEADS FROM KSTP 1 AND KPER 2

 SFR-1 SETTING BUDGET TERMS FOR KSTP 2238 AND KPER 2 TO BUDGET FILE TERMS FROM KSTP 1 AND KPER 2

end timestep


start timestep kper="2" kstp="2239" mode="normal"


 FMI SETTING BUDGET TERMS FOR KSTP 2239 AND KPER 2 TO BUDGET FILE TERMS FROM KSTP 1 AND KPER 2

 FMI SETTING HEAD FOR KSTP 2239 AND KPER 2 TO BINARY FILE HEADS FROM KSTP 1 AND KPER 2

 SFR-1 SETTING BUDGET TERMS FOR KSTP 2239 AND KPER 2 TO BUDGET FILE TERMS FROM KSTP 1 AND KPER 2

end timestep


start timestep kper="2" kstp="2240" mode="normal"


 FMI SETTING BUDGET TERMS FOR KSTP 2240 AND KPER 2 TO BUDGET FILE TERMS FROM KSTP 1 AND KPER 2

 FMI SETTING HEAD FOR KSTP 2240 AND KPER 2 TO BINARY FILE HEADS FROM KSTP 1 AND KPER 2

 SFR-1 SETTING BUDGET TERMS FOR KSTP 2240 AND KPER 2 TO BUDGET FILE TERMS FROM KSTP 1 AND KPER 2

 CONCENTRATION WILL BE SAVED ON UNIT 1024 AT END OF TIME STEP 2240, STRESS PERIOD    2

end timestep


start timestep kper="2" kstp="2241" mode="normal"


 FMI SETTING BUDGET TERMS FOR KSTP 2241 AND KPER 2 TO BUDGET FILE TERMS FROM KSTP 1 AND KPER 2

 FMI SETTING HEAD FOR KSTP 2241 AND KPER 2 TO BINARY FILE HEADS FROM KSTP 1 AND KPER 2

 SFR-1 SETTING BUDGET TERMS FOR KSTP 2241 AND KPER 2 TO BUDGET FILE TERMS FROM KSTP 1 AND KPER 2

end timestep


start timestep kper="2" kstp="2242" mode="normal"


 FMI SETTING BUDGET TERMS FOR KSTP 2242 AND KPER 2 TO BUDGET FILE TERMS FROM KSTP 1 AND KPER 2

 FMI SETTING HEAD FOR KSTP 2242 AND KPER 2 TO BINARY FILE HEADS FROM KSTP 1 AND KPER 2

 SFR-1 SETTING BUDGET TERMS FOR KSTP 2242 AND KPER 2 TO BUDGET FILE TERMS FROM KSTP 1 AND KPER 2

end timestep


start timestep kper="2" kstp="2243" mode="normal"


 FMI SETTING BUDGET TERMS FOR KSTP 2243 AND KPER 2 TO BUDGET FILE TERMS FROM KSTP 1 AND KPER 2

 FMI SETTING HEAD FOR KSTP 2243 AND KPER 2 TO BINARY FILE HEADS FROM KSTP 1 AND KPER 2

 SFR-1 SETTING BUDGET TERMS FOR KSTP 2243 AND KPER 2 TO BUDGET FILE TERMS FROM KSTP 1 AND KPER 2

end timestep


start timestep kper="2" kstp="2244" mode="normal"


 FMI SETTING BUDGET TERMS FOR KSTP 2244 AND KPER 2 TO BUDGET FILE TERMS FROM KSTP 1 AND KPER 2

 FMI SETTING HEAD FOR KSTP 2244 AND KPER 2 TO BINARY FILE HEADS FROM KSTP 1 AND KPER 2

 SFR-1 SETTING BUDGET TERMS FOR KSTP 2244 AND KPER 2 TO BUDGET FILE TERMS FROM KSTP 1 AND KPER 2

end timestep


start timestep kper="2" kstp="2245" mode="normal"


 FMI SETTING BUDGET TERMS FOR KSTP 2245 AND KPER 2 TO BUDGET FILE TERMS FROM KSTP 1 AND KPER 2

 FMI SETTING HEAD FOR KSTP 2245 AND KPER 2 TO BINARY FILE HEADS FROM KSTP 1 AND KPER 2

 SFR-1 SETTING BUDGET TERMS FOR KSTP 2245 AND KPER 2 TO BUDGET FILE TERMS FROM KSTP 1 AND KPER 2

end timestep


start timestep kper="2" kstp="2246" mode="normal"


 FMI SETTING BUDGET TERMS FOR KSTP 2246 AND KPER 2 TO BUDGET FILE TERMS FROM KSTP 1 AND KPER 2

 FMI SETTING HEAD FOR KSTP 2246 AND KPER 2 TO BINARY FILE HEADS FROM KSTP 1 AND KPER 2

 SFR-1 SETTING BUDGET TERMS FOR KSTP 2246 AND KPER 2 TO BUDGET FILE TERMS FROM KSTP 1 AND KPER 2

end timestep


start timestep kper="2" kstp="2247" mode="normal"


 FMI SETTING BUDGET TERMS FOR KSTP 2247 AND KPER 2 TO BUDGET FILE TERMS FROM KSTP 1 AND KPER 2

 FMI SETTING HEAD FOR KSTP 2247 AND KPER 2 TO BINARY FILE HEADS FROM KSTP 1 AND KPER 2

 SFR-1 SETTING BUDGET TERMS FOR KSTP 2247 AND KPER 2 TO BUDGET FILE TERMS FROM KSTP 1 AND KPER 2

end timestep


start timestep kper="2" kstp="2248" mode="normal"


 FMI SETTING BUDGET TERMS FOR KSTP 2248 AND KPER 2 TO BUDGET FILE TERMS FROM KSTP 1 AND KPER 2

 FMI SETTING HEAD FOR KSTP 2248 AND KPER 2 TO BINARY FILE HEADS FROM KSTP 1 AND KPER 2

 SFR-1 SETTING BUDGET TERMS FOR KSTP 2248 AND KPER 2 TO BUDGET FILE TERMS FROM KSTP 1 AND KPER 2

end timestep


start timestep kper="2" kstp="2249" mode="normal"


 FMI SETTING BUDGET TERMS FOR KSTP 2249 AND KPER 2 TO BUDGET FILE TERMS FROM KSTP 1 AND KPER 2

 FMI SETTING HEAD FOR KSTP 2249 AND KPER 2 TO BINARY FILE HEADS FROM KSTP 1 AND KPER 2

 SFR-1 SETTING BUDGET TERMS FOR KSTP 2249 AND KPER 2 TO BUDGET FILE TERMS FROM KSTP 1 AND KPER 2

end timestep


start timestep kper="2" kstp="2250" mode="normal"


 FMI SETTING BUDGET TERMS FOR KSTP 2250 AND KPER 2 TO BUDGET FILE TERMS FROM KSTP 1 AND KPER 2

 FMI SETTING HEAD FOR KSTP 2250 AND KPER 2 TO BINARY FILE HEADS FROM KSTP 1 AND KPER 2

 SFR-1 SETTING BUDGET TERMS FOR KSTP 2250 AND KPER 2 TO BUDGET FILE TERMS FROM KSTP 1 AND KPER 2

 CONCENTRATION WILL BE SAVED ON UNIT 1024 AT END OF TIME STEP 2250, STRESS PERIOD    2

end timestep


start timestep kper="2" kstp="2251" mode="normal"


 FMI SETTING BUDGET TERMS FOR KSTP 2251 AND KPER 2 TO BUDGET FILE TERMS FROM KSTP 1 AND KPER 2

 FMI SETTING HEAD FOR KSTP 2251 AND KPER 2 TO BINARY FILE HEADS FROM KSTP 1 AND KPER 2

 SFR-1 SETTING BUDGET TERMS FOR KSTP 2251 AND KPER 2 TO BUDGET FILE TERMS FROM KSTP 1 AND KPER 2

end timestep


start timestep kper="2" kstp="2252" mode="normal"


 FMI SETTING BUDGET TERMS FOR KSTP 2252 AND KPER 2 TO BUDGET FILE TERMS FROM KSTP 1 AND KPER 2

 FMI SETTING HEAD FOR KSTP 2252 AND KPER 2 TO BINARY FILE HEADS FROM KSTP 1 AND KPER 2

 SFR-1 SETTING BUDGET TERMS FOR KSTP 2252 AND KPER 2 TO BUDGET FILE TERMS FROM KSTP 1 AND KPER 2

end timestep


start timestep kper="2" kstp="2253" mode="normal"


 FMI SETTING BUDGET TERMS FOR KSTP 2253 AND KPER 2 TO BUDGET FILE TERMS FROM KSTP 1 AND KPER 2

 FMI SETTING HEAD FOR KSTP 2253 AND KPER 2 TO BINARY FILE HEADS FROM KSTP 1 AND KPER 2

 SFR-1 SETTING BUDGET TERMS FOR KSTP 2253 AND KPER 2 TO BUDGET FILE TERMS FROM KSTP 1 AND KPER 2

end timestep


start timestep kper="2" kstp="2254" mode="normal"


 FMI SETTING BUDGET TERMS FOR KSTP 2254 AND KPER 2 TO BUDGET FILE TERMS FROM KSTP 1 AND KPER 2

 FMI SETTING HEAD FOR KSTP 2254 AND KPER 2 TO BINARY FILE HEADS FROM KSTP 1 AND KPER 2

 SFR-1 SETTING BUDGET TERMS FOR KSTP 2254 AND KPER 2 TO BUDGET FILE TERMS FROM KSTP 1 AND KPER 2

end timestep


start timestep kper="2" kstp="2255" mode="normal"


 FMI SETTING BUDGET TERMS FOR KSTP 2255 AND KPER 2 TO BUDGET FILE TERMS FROM KSTP 1 AND KPER 2

 FMI SETTING HEAD FOR KSTP 2255 AND KPER 2 TO BINARY FILE HEADS FROM KSTP 1 AND KPER 2

 SFR-1 SETTING BUDGET TERMS FOR KSTP 2255 AND KPER 2 TO BUDGET FILE TERMS FROM KSTP 1 AND KPER 2

end timestep


start timestep kper="2" kstp="2256" mode="normal"


 FMI SETTING BUDGET TERMS FOR KSTP 2256 AND KPER 2 TO BUDGET FILE TERMS FROM KSTP 1 AND KPER 2

 FMI SETTING HEAD FOR KSTP 2256 AND KPER 2 TO BINARY FILE HEADS FROM KSTP 1 AND KPER 2

 SFR-1 SETTING BUDGET TERMS FOR KSTP 2256 AND KPER 2 TO BUDGET FILE TERMS FROM KSTP 1 AND KPER 2

end timestep


start timestep kper="2" kstp="2257" mode="normal"


 FMI SETTING BUDGET TERMS FOR KSTP 2257 AND KPER 2 TO BUDGET FILE TERMS FROM KSTP 1 AND KPER 2

 FMI SETTING HEAD FOR KSTP 2257 AND KPER 2 TO BINARY FILE HEADS FROM KSTP 1 AND KPER 2

 SFR-1 SETTING BUDGET TERMS FOR KSTP 2257 AND KPER 2 TO BUDGET FILE TERMS FROM KSTP 1 AND KPER 2

end timestep


start timestep kper="2" kstp="2258" mode="normal"


 FMI SETTING BUDGET TERMS FOR KSTP 2258 AND KPER 2 TO BUDGET FILE TERMS FROM KSTP 1 AND KPER 2

 FMI SETTING HEAD FOR KSTP 2258 AND KPER 2 TO BINARY FILE HEADS FROM KSTP 1 AND KPER 2

 SFR-1 SETTING BUDGET TERMS FOR KSTP 2258 AND KPER 2 TO BUDGET FILE TERMS FROM KSTP 1 AND KPER 2

end timestep


start timestep kper="2" kstp="2259" mode="normal"


 FMI SETTING BUDGET TERMS FOR KSTP 2259 AND KPER 2 TO BUDGET FILE TERMS FROM KSTP 1 AND KPER 2

 FMI SETTING HEAD FOR KSTP 2259 AND KPER 2 TO BINARY FILE HEADS FROM KSTP 1 AND KPER 2

 SFR-1 SETTING BUDGET TERMS FOR KSTP 2259 AND KPER 2 TO BUDGET FILE TERMS FROM KSTP 1 AND KPER 2

end timestep


start timestep kper="2" kstp="2260" mode="normal"


 FMI SETTING BUDGET TERMS FOR KSTP 2260 AND KPER 2 TO BUDGET FILE TERMS FROM KSTP 1 AND KPER 2

 FMI SETTING HEAD FOR KSTP 2260 AND KPER 2 TO BINARY FILE HEADS FROM KSTP 1 AND KPER 2

 SFR-1 SETTING BUDGET TERMS FOR KSTP 2260 AND KPER 2 TO BUDGET FILE TERMS FROM KSTP 1 AND KPER 2

 CONCENTRATION WILL BE SAVED ON UNIT 1024 AT END OF TIME STEP 2260, STRESS PERIOD    2

end timestep


start timestep kper="2" kstp="2261" mode="normal"


 FMI SETTING BUDGET TERMS FOR KSTP 2261 AND KPER 2 TO BUDGET FILE TERMS FROM KSTP 1 AND KPER 2

 FMI SETTING HEAD FOR KSTP 2261 AND KPER 2 TO BINARY FILE HEADS FROM KSTP 1 AND KPER 2

 SFR-1 SETTING BUDGET TERMS FOR KSTP 2261 AND KPER 2 TO BUDGET FILE TERMS FROM KSTP 1 AND KPER 2

end timestep


start timestep kper="2" kstp="2262" mode="normal"


 FMI SETTING BUDGET TERMS FOR KSTP 2262 AND KPER 2 TO BUDGET FILE TERMS FROM KSTP 1 AND KPER 2

 FMI SETTING HEAD FOR KSTP 2262 AND KPER 2 TO BINARY FILE HEADS FROM KSTP 1 AND KPER 2

 SFR-1 SETTING BUDGET TERMS FOR KSTP 2262 AND KPER 2 TO BUDGET FILE TERMS FROM KSTP 1 AND KPER 2

end timestep


start timestep kper="2" kstp="2263" mode="normal"


 FMI SETTING BUDGET TERMS FOR KSTP 2263 AND KPER 2 TO BUDGET FILE TERMS FROM KSTP 1 AND KPER 2

 FMI SETTING HEAD FOR KSTP 2263 AND KPER 2 TO BINARY FILE HEADS FROM KSTP 1 AND KPER 2

 SFR-1 SETTING BUDGET TERMS FOR KSTP 2263 AND KPER 2 TO BUDGET FILE TERMS FROM KSTP 1 AND KPER 2

end timestep


start timestep kper="2" kstp="2264" mode="normal"


 FMI SETTING BUDGET TERMS FOR KSTP 2264 AND KPER 2 TO BUDGET FILE TERMS FROM KSTP 1 AND KPER 2

 FMI SETTING HEAD FOR KSTP 2264 AND KPER 2 TO BINARY FILE HEADS FROM KSTP 1 AND KPER 2

 SFR-1 SETTING BUDGET TERMS FOR KSTP 2264 AND KPER 2 TO BUDGET FILE TERMS FROM KSTP 1 AND KPER 2

end timestep


start timestep kper="2" kstp="2265" mode="normal"


 FMI SETTING BUDGET TERMS FOR KSTP 2265 AND KPER 2 TO BUDGET FILE TERMS FROM KSTP 1 AND KPER 2

 FMI SETTING HEAD FOR KSTP 2265 AND KPER 2 TO BINARY FILE HEADS FROM KSTP 1 AND KPER 2

 SFR-1 SETTING BUDGET TERMS FOR KSTP 2265 AND KPER 2 TO BUDGET FILE TERMS FROM KSTP 1 AND KPER 2

end timestep


start timestep kper="2" kstp="2266" mode="normal"


 FMI SETTING BUDGET TERMS FOR KSTP 2266 AND KPER 2 TO BUDGET FILE TERMS FROM KSTP 1 AND KPER 2

 FMI SETTING HEAD FOR KSTP 2266 AND KPER 2 TO BINARY FILE HEADS FROM KSTP 1 AND KPER 2

 SFR-1 SETTING BUDGET TERMS FOR KSTP 2266 AND KPER 2 TO BUDGET FILE TERMS FROM KSTP 1 AND KPER 2

end timestep


start timestep kper="2" kstp="2267" mode="normal"


 FMI SETTING BUDGET TERMS FOR KSTP 2267 AND KPER 2 TO BUDGET FILE TERMS FROM KSTP 1 AND KPER 2

 FMI SETTING HEAD FOR KSTP 2267 AND KPER 2 TO BINARY FILE HEADS FROM KSTP 1 AND KPER 2

 SFR-1 SETTING BUDGET TERMS FOR KSTP 2267 AND KPER 2 TO BUDGET FILE TERMS FROM KSTP 1 AND KPER 2

end timestep


start timestep kper="2" kstp="2268" mode="normal"


 FMI SETTING BUDGET TERMS FOR KSTP 2268 AND KPER 2 TO BUDGET FILE TERMS FROM KSTP 1 AND KPER 2

 FMI SETTING HEAD FOR KSTP 2268 AND KPER 2 TO BINARY FILE HEADS FROM KSTP 1 AND KPER 2

 SFR-1 SETTING BUDGET TERMS FOR KSTP 2268 AND KPER 2 TO BUDGET FILE TERMS FROM KSTP 1 AND KPER 2

end timestep


start timestep kper="2" kstp="2269" mode="normal"


 FMI SETTING BUDGET TERMS FOR KSTP 2269 AND KPER 2 TO BUDGET FILE TERMS FROM KSTP 1 AND KPER 2

 FMI SETTING HEAD FOR KSTP 2269 AND KPER 2 TO BINARY FILE HEADS FROM KSTP 1 AND KPER 2

 SFR-1 SETTING BUDGET TERMS FOR KSTP 2269 AND KPER 2 TO BUDGET FILE TERMS FROM KSTP 1 AND KPER 2

end timestep


start timestep kper="2" kstp="2270" mode="normal"


 FMI SETTING BUDGET TERMS FOR KSTP 2270 AND KPER 2 TO BUDGET FILE TERMS FROM KSTP 1 AND KPER 2

 FMI SETTING HEAD FOR KSTP 2270 AND KPER 2 TO BINARY FILE HEADS FROM KSTP 1 AND KPER 2

 SFR-1 SETTING BUDGET TERMS FOR KSTP 2270 AND KPER 2 TO BUDGET FILE TERMS FROM KSTP 1 AND KPER 2

 CONCENTRATION WILL BE SAVED ON UNIT 1024 AT END OF TIME STEP 2270, STRESS PERIOD    2

end timestep


start timestep kper="2" kstp="2271" mode="normal"


 FMI SETTING BUDGET TERMS FOR KSTP 2271 AND KPER 2 TO BUDGET FILE TERMS FROM KSTP 1 AND KPER 2

 FMI SETTING HEAD FOR KSTP 2271 AND KPER 2 TO BINARY FILE HEADS FROM KSTP 1 AND KPER 2

 SFR-1 SETTING BUDGET TERMS FOR KSTP 2271 AND KPER 2 TO BUDGET FILE TERMS FROM KSTP 1 AND KPER 2

end timestep


start timestep kper="2" kstp="2272" mode="normal"


 FMI SETTING BUDGET TERMS FOR KSTP 2272 AND KPER 2 TO BUDGET FILE TERMS FROM KSTP 1 AND KPER 2

 FMI SETTING HEAD FOR KSTP 2272 AND KPER 2 TO BINARY FILE HEADS FROM KSTP 1 AND KPER 2

 SFR-1 SETTING BUDGET TERMS FOR KSTP 2272 AND KPER 2 TO BUDGET FILE TERMS FROM KSTP 1 AND KPER 2

end timestep


start timestep kper="2" kstp="2273" mode="normal"


 FMI SETTING BUDGET TERMS FOR KSTP 2273 AND KPER 2 TO BUDGET FILE TERMS FROM KSTP 1 AND KPER 2

 FMI SETTING HEAD FOR KSTP 2273 AND KPER 2 TO BINARY FILE HEADS FROM KSTP 1 AND KPER 2

 SFR-1 SETTING BUDGET TERMS FOR KSTP 2273 AND KPER 2 TO BUDGET FILE TERMS FROM KSTP 1 AND KPER 2

end timestep


start timestep kper="2" kstp="2274" mode="normal"


 FMI SETTING BUDGET TERMS FOR KSTP 2274 AND KPER 2 TO BUDGET FILE TERMS FROM KSTP 1 AND KPER 2

 FMI SETTING HEAD FOR KSTP 2274 AND KPER 2 TO BINARY FILE HEADS FROM KSTP 1 AND KPER 2

 SFR-1 SETTING BUDGET TERMS FOR KSTP 2274 AND KPER 2 TO BUDGET FILE TERMS FROM KSTP 1 AND KPER 2

end timestep


start timestep kper="2" kstp="2275" mode="normal"


 FMI SETTING BUDGET TERMS FOR KSTP 2275 AND KPER 2 TO BUDGET FILE TERMS FROM KSTP 1 AND KPER 2

 FMI SETTING HEAD FOR KSTP 2275 AND KPER 2 TO BINARY FILE HEADS FROM KSTP 1 AND KPER 2

 SFR-1 SETTING BUDGET TERMS FOR KSTP 2275 AND KPER 2 TO BUDGET FILE TERMS FROM KSTP 1 AND KPER 2

end timestep


start timestep kper="2" kstp="2276" mode="normal"


 FMI SETTING BUDGET TERMS FOR KSTP 2276 AND KPER 2 TO BUDGET FILE TERMS FROM KSTP 1 AND KPER 2

 FMI SETTING HEAD FOR KSTP 2276 AND KPER 2 TO BINARY FILE HEADS FROM KSTP 1 AND KPER 2

 SFR-1 SETTING BUDGET TERMS FOR KSTP 2276 AND KPER 2 TO BUDGET FILE TERMS FROM KSTP 1 AND KPER 2

end timestep


start timestep kper="2" kstp="2277" mode="normal"


 FMI SETTING BUDGET TERMS FOR KSTP 2277 AND KPER 2 TO BUDGET FILE TERMS FROM KSTP 1 AND KPER 2

 FMI SETTING HEAD FOR KSTP 2277 AND KPER 2 TO BINARY FILE HEADS FROM KSTP 1 AND KPER 2

 SFR-1 SETTING BUDGET TERMS FOR KSTP 2277 AND KPER 2 TO BUDGET FILE TERMS FROM KSTP 1 AND KPER 2

end timestep


start timestep kper="2" kstp="2278" mode="normal"


 FMI SETTING BUDGET TERMS FOR KSTP 2278 AND KPER 2 TO BUDGET FILE TERMS FROM KSTP 1 AND KPER 2

 FMI SETTING HEAD FOR KSTP 2278 AND KPER 2 TO BINARY FILE HEADS FROM KSTP 1 AND KPER 2

 SFR-1 SETTING BUDGET TERMS FOR KSTP 2278 AND KPER 2 TO BUDGET FILE TERMS FROM KSTP 1 AND KPER 2

end timestep


start timestep kper="2" kstp="2279" mode="normal"


 FMI SETTING BUDGET TERMS FOR KSTP 2279 AND KPER 2 TO BUDGET FILE TERMS FROM KSTP 1 AND KPER 2

 FMI SETTING HEAD FOR KSTP 2279 AND KPER 2 TO BINARY FILE HEADS FROM KSTP 1 AND KPER 2

 SFR-1 SETTING BUDGET TERMS FOR KSTP 2279 AND KPER 2 TO BUDGET FILE TERMS FROM KSTP 1 AND KPER 2

end timestep


start timestep kper="2" kstp="2280" mode="normal"


 FMI SETTING BUDGET TERMS FOR KSTP 2280 AND KPER 2 TO BUDGET FILE TERMS FROM KSTP 1 AND KPER 2

 FMI SETTING HEAD FOR KSTP 2280 AND KPER 2 TO BINARY FILE HEADS FROM KSTP 1 AND KPER 2

 SFR-1 SETTING BUDGET TERMS FOR KSTP 2280 AND KPER 2 TO BUDGET FILE TERMS FROM KSTP 1 AND KPER 2

 CONCENTRATION WILL BE SAVED ON UNIT 1024 AT END OF TIME STEP 2280, STRESS PERIOD    2

end timestep


start timestep kper="2" kstp="2281" mode="normal"


 FMI SETTING BUDGET TERMS FOR KSTP 2281 AND KPER 2 TO BUDGET FILE TERMS FROM KSTP 1 AND KPER 2

 FMI SETTING HEAD FOR KSTP 2281 AND KPER 2 TO BINARY FILE HEADS FROM KSTP 1 AND KPER 2

 SFR-1 SETTING BUDGET TERMS FOR KSTP 2281 AND KPER 2 TO BUDGET FILE TERMS FROM KSTP 1 AND KPER 2

end timestep


start timestep kper="2" kstp="2282" mode="normal"


 FMI SETTING BUDGET TERMS FOR KSTP 2282 AND KPER 2 TO BUDGET FILE TERMS FROM KSTP 1 AND KPER 2

 FMI SETTING HEAD FOR KSTP 2282 AND KPER 2 TO BINARY FILE HEADS FROM KSTP 1 AND KPER 2

 SFR-1 SETTING BUDGET TERMS FOR KSTP 2282 AND KPER 2 TO BUDGET FILE TERMS FROM KSTP 1 AND KPER 2

end timestep


start timestep kper="2" kstp="2283" mode="normal"


 FMI SETTING BUDGET TERMS FOR KSTP 2283 AND KPER 2 TO BUDGET FILE TERMS FROM KSTP 1 AND KPER 2

 FMI SETTING HEAD FOR KSTP 2283 AND KPER 2 TO BINARY FILE HEADS FROM KSTP 1 AND KPER 2

 SFR-1 SETTING BUDGET TERMS FOR KSTP 2283 AND KPER 2 TO BUDGET FILE TERMS FROM KSTP 1 AND KPER 2

end timestep


start timestep kper="2" kstp="2284" mode="normal"


 FMI SETTING BUDGET TERMS FOR KSTP 2284 AND KPER 2 TO BUDGET FILE TERMS FROM KSTP 1 AND KPER 2

 FMI SETTING HEAD FOR KSTP 2284 AND KPER 2 TO BINARY FILE HEADS FROM KSTP 1 AND KPER 2

 SFR-1 SETTING BUDGET TERMS FOR KSTP 2284 AND KPER 2 TO BUDGET FILE TERMS FROM KSTP 1 AND KPER 2

end timestep


start timestep kper="2" kstp="2285" mode="normal"


 FMI SETTING BUDGET TERMS FOR KSTP 2285 AND KPER 2 TO BUDGET FILE TERMS FROM KSTP 1 AND KPER 2

 FMI SETTING HEAD FOR KSTP 2285 AND KPER 2 TO BINARY FILE HEADS FROM KSTP 1 AND KPER 2

 SFR-1 SETTING BUDGET TERMS FOR KSTP 2285 AND KPER 2 TO BUDGET FILE TERMS FROM KSTP 1 AND KPER 2

end timestep


start timestep kper="2" kstp="2286" mode="normal"


 FMI SETTING BUDGET TERMS FOR KSTP 2286 AND KPER 2 TO BUDGET FILE TERMS FROM KSTP 1 AND KPER 2

 FMI SETTING HEAD FOR KSTP 2286 AND KPER 2 TO BINARY FILE HEADS FROM KSTP 1 AND KPER 2

 SFR-1 SETTING BUDGET TERMS FOR KSTP 2286 AND KPER 2 TO BUDGET FILE TERMS FROM KSTP 1 AND KPER 2

end timestep


start timestep kper="2" kstp="2287" mode="normal"


 FMI SETTING BUDGET TERMS FOR KSTP 2287 AND KPER 2 TO BUDGET FILE TERMS FROM KSTP 1 AND KPER 2

 FMI SETTING HEAD FOR KSTP 2287 AND KPER 2 TO BINARY FILE HEADS FROM KSTP 1 AND KPER 2

 SFR-1 SETTING BUDGET TERMS FOR KSTP 2287 AND KPER 2 TO BUDGET FILE TERMS FROM KSTP 1 AND KPER 2

end timestep


start timestep kper="2" kstp="2288" mode="normal"


 FMI SETTING BUDGET TERMS FOR KSTP 2288 AND KPER 2 TO BUDGET FILE TERMS FROM KSTP 1 AND KPER 2

 FMI SETTING HEAD FOR KSTP 2288 AND KPER 2 TO BINARY FILE HEADS FROM KSTP 1 AND KPER 2

 SFR-1 SETTING BUDGET TERMS FOR KSTP 2288 AND KPER 2 TO BUDGET FILE TERMS FROM KSTP 1 AND KPER 2

end timestep


start timestep kper="2" kstp="2289" mode="normal"


 FMI SETTING BUDGET TERMS FOR KSTP 2289 AND KPER 2 TO BUDGET FILE TERMS FROM KSTP 1 AND KPER 2

 FMI SETTING HEAD FOR KSTP 2289 AND KPER 2 TO BINARY FILE HEADS FROM KSTP 1 AND KPER 2

 SFR-1 SETTING BUDGET TERMS FOR KSTP 2289 AND KPER 2 TO BUDGET FILE TERMS FROM KSTP 1 AND KPER 2

end timestep


start timestep kper="2" kstp="2290" mode="normal"


 FMI SETTING BUDGET TERMS FOR KSTP 2290 AND KPER 2 TO BUDGET FILE TERMS FROM KSTP 1 AND KPER 2

 FMI SETTING HEAD FOR KSTP 2290 AND KPER 2 TO BINARY FILE HEADS FROM KSTP 1 AND KPER 2

 SFR-1 SETTING BUDGET TERMS FOR KSTP 2290 AND KPER 2 TO BUDGET FILE TERMS FROM KSTP 1 AND KPER 2

 CONCENTRATION WILL BE SAVED ON UNIT 1024 AT END OF TIME STEP 2290, STRESS PERIOD    2

end timestep


start timestep kper="2" kstp="2291" mode="normal"


 FMI SETTING BUDGET TERMS FOR KSTP 2291 AND KPER 2 TO BUDGET FILE TERMS FROM KSTP 1 AND KPER 2

 FMI SETTING HEAD FOR KSTP 2291 AND KPER 2 TO BINARY FILE HEADS FROM KSTP 1 AND KPER 2

 SFR-1 SETTING BUDGET TERMS FOR KSTP 2291 AND KPER 2 TO BUDGET FILE TERMS FROM KSTP 1 AND KPER 2

end timestep


start timestep kper="2" kstp="2292" mode="normal"


 FMI SETTING BUDGET TERMS FOR KSTP 2292 AND KPER 2 TO BUDGET FILE TERMS FROM KSTP 1 AND KPER 2

 FMI SETTING HEAD FOR KSTP 2292 AND KPER 2 TO BINARY FILE HEADS FROM KSTP 1 AND KPER 2

 SFR-1 SETTING BUDGET TERMS FOR KSTP 2292 AND KPER 2 TO BUDGET FILE TERMS FROM KSTP 1 AND KPER 2

end timestep


start timestep kper="2" kstp="2293" mode="normal"


 FMI SETTING BUDGET TERMS FOR KSTP 2293 AND KPER 2 TO BUDGET FILE TERMS FROM KSTP 1 AND KPER 2

 FMI SETTING HEAD FOR KSTP 2293 AND KPER 2 TO BINARY FILE HEADS FROM KSTP 1 AND KPER 2

 SFR-1 SETTING BUDGET TERMS FOR KSTP 2293 AND KPER 2 TO BUDGET FILE TERMS FROM KSTP 1 AND KPER 2

end timestep


start timestep kper="2" kstp="2294" mode="normal"


 FMI SETTING BUDGET TERMS FOR KSTP 2294 AND KPER 2 TO BUDGET FILE TERMS FROM KSTP 1 AND KPER 2

 FMI SETTING HEAD FOR KSTP 2294 AND KPER 2 TO BINARY FILE HEADS FROM KSTP 1 AND KPER 2

 SFR-1 SETTING BUDGET TERMS FOR KSTP 2294 AND KPER 2 TO BUDGET FILE TERMS FROM KSTP 1 AND KPER 2

end timestep


start timestep kper="2" kstp="2295" mode="normal"


 FMI SETTING BUDGET TERMS FOR KSTP 2295 AND KPER 2 TO BUDGET FILE TERMS FROM KSTP 1 AND KPER 2

 FMI SETTING HEAD FOR KSTP 2295 AND KPER 2 TO BINARY FILE HEADS FROM KSTP 1 AND KPER 2

 SFR-1 SETTING BUDGET TERMS FOR KSTP 2295 AND KPER 2 TO BUDGET FILE TERMS FROM KSTP 1 AND KPER 2

end timestep


start timestep kper="2" kstp="2296" mode="normal"


 FMI SETTING BUDGET TERMS FOR KSTP 2296 AND KPER 2 TO BUDGET FILE TERMS FROM KSTP 1 AND KPER 2

 FMI SETTING HEAD FOR KSTP 2296 AND KPER 2 TO BINARY FILE HEADS FROM KSTP 1 AND KPER 2

 SFR-1 SETTING BUDGET TERMS FOR KSTP 2296 AND KPER 2 TO BUDGET FILE TERMS FROM KSTP 1 AND KPER 2

end timestep


start timestep kper="2" kstp="2297" mode="normal"


 FMI SETTING BUDGET TERMS FOR KSTP 2297 AND KPER 2 TO BUDGET FILE TERMS FROM KSTP 1 AND KPER 2

 FMI SETTING HEAD FOR KSTP 2297 AND KPER 2 TO BINARY FILE HEADS FROM KSTP 1 AND KPER 2

 SFR-1 SETTING BUDGET TERMS FOR KSTP 2297 AND KPER 2 TO BUDGET FILE TERMS FROM KSTP 1 AND KPER 2

end timestep


start timestep kper="2" kstp="2298" mode="normal"


 FMI SETTING BUDGET TERMS FOR KSTP 2298 AND KPER 2 TO BUDGET FILE TERMS FROM KSTP 1 AND KPER 2

 FMI SETTING HEAD FOR KSTP 2298 AND KPER 2 TO BINARY FILE HEADS FROM KSTP 1 AND KPER 2

 SFR-1 SETTING BUDGET TERMS FOR KSTP 2298 AND KPER 2 TO BUDGET FILE TERMS FROM KSTP 1 AND KPER 2

end timestep


start timestep kper="2" kstp="2299" mode="normal"


 FMI SETTING BUDGET TERMS FOR KSTP 2299 AND KPER 2 TO BUDGET FILE TERMS FROM KSTP 1 AND KPER 2

 FMI SETTING HEAD FOR KSTP 2299 AND KPER 2 TO BINARY FILE HEADS FROM KSTP 1 AND KPER 2

 SFR-1 SETTING BUDGET TERMS FOR KSTP 2299 AND KPER 2 TO BUDGET FILE TERMS FROM KSTP 1 AND KPER 2

end timestep


start timestep kper="2" kstp="2300" mode="normal"


 FMI SETTING BUDGET TERMS FOR KSTP 2300 AND KPER 2 TO BUDGET FILE TERMS FROM KSTP 1 AND KPER 2

 FMI SETTING HEAD FOR KSTP 2300 AND KPER 2 TO BINARY FILE HEADS FROM KSTP 1 AND KPER 2

 SFR-1 SETTING BUDGET TERMS FOR KSTP 2300 AND KPER 2 TO BUDGET FILE TERMS FROM KSTP 1 AND KPER 2

 CONCENTRATION WILL BE SAVED ON UNIT 1024 AT END OF TIME STEP 2300, STRESS PERIOD    2

end timestep


start timestep kper="2" kstp="2301" mode="normal"


 FMI SETTING BUDGET TERMS FOR KSTP 2301 AND KPER 2 TO BUDGET FILE TERMS FROM KSTP 1 AND KPER 2

 FMI SETTING HEAD FOR KSTP 2301 AND KPER 2 TO BINARY FILE HEADS FROM KSTP 1 AND KPER 2

 SFR-1 SETTING BUDGET TERMS FOR KSTP 2301 AND KPER 2 TO BUDGET FILE TERMS FROM KSTP 1 AND KPER 2

end timestep


start timestep kper="2" kstp="2302" mode="normal"


 FMI SETTING BUDGET TERMS FOR KSTP 2302 AND KPER 2 TO BUDGET FILE TERMS FROM KSTP 1 AND KPER 2

 FMI SETTING HEAD FOR KSTP 2302 AND KPER 2 TO BINARY FILE HEADS FROM KSTP 1 AND KPER 2

 SFR-1 SETTING BUDGET TERMS FOR KSTP 2302 AND KPER 2 TO BUDGET FILE TERMS FROM KSTP 1 AND KPER 2

end timestep


start timestep kper="2" kstp="2303" mode="normal"


 FMI SETTING BUDGET TERMS FOR KSTP 2303 AND KPER 2 TO BUDGET FILE TERMS FROM KSTP 1 AND KPER 2

 FMI SETTING HEAD FOR KSTP 2303 AND KPER 2 TO BINARY FILE HEADS FROM KSTP 1 AND KPER 2

 SFR-1 SETTING BUDGET TERMS FOR KSTP 2303 AND KPER 2 TO BUDGET FILE TERMS FROM KSTP 1 AND KPER 2

end timestep


start timestep kper="2" kstp="2304" mode="normal"


 FMI SETTING BUDGET TERMS FOR KSTP 2304 AND KPER 2 TO BUDGET FILE TERMS FROM KSTP 1 AND KPER 2

 FMI SETTING HEAD FOR KSTP 2304 AND KPER 2 TO BINARY FILE HEADS FROM KSTP 1 AND KPER 2

 SFR-1 SETTING BUDGET TERMS FOR KSTP 2304 AND KPER 2 TO BUDGET FILE TERMS FROM KSTP 1 AND KPER 2

end timestep


start timestep kper="2" kstp="2305" mode="normal"


 FMI SETTING BUDGET TERMS FOR KSTP 2305 AND KPER 2 TO BUDGET FILE TERMS FROM KSTP 1 AND KPER 2

 FMI SETTING HEAD FOR KSTP 2305 AND KPER 2 TO BINARY FILE HEADS FROM KSTP 1 AND KPER 2

 SFR-1 SETTING BUDGET TERMS FOR KSTP 2305 AND KPER 2 TO BUDGET FILE TERMS FROM KSTP 1 AND KPER 2

end timestep


start timestep kper="2" kstp="2306" mode="normal"


 FMI SETTING BUDGET TERMS FOR KSTP 2306 AND KPER 2 TO BUDGET FILE TERMS FROM KSTP 1 AND KPER 2

 FMI SETTING HEAD FOR KSTP 2306 AND KPER 2 TO BINARY FILE HEADS FROM KSTP 1 AND KPER 2

 SFR-1 SETTING BUDGET TERMS FOR KSTP 2306 AND KPER 2 TO BUDGET FILE TERMS FROM KSTP 1 AND KPER 2

end timestep


start timestep kper="2" kstp="2307" mode="normal"


 FMI SETTING BUDGET TERMS FOR KSTP 2307 AND KPER 2 TO BUDGET FILE TERMS FROM KSTP 1 AND KPER 2

 FMI SETTING HEAD FOR KSTP 2307 AND KPER 2 TO BINARY FILE HEADS FROM KSTP 1 AND KPER 2

 SFR-1 SETTING BUDGET TERMS FOR KSTP 2307 AND KPER 2 TO BUDGET FILE TERMS FROM KSTP 1 AND KPER 2

end timestep


start timestep kper="2" kstp="2308" mode="normal"


 FMI SETTING BUDGET TERMS FOR KSTP 2308 AND KPER 2 TO BUDGET FILE TERMS FROM KSTP 1 AND KPER 2

 FMI SETTING HEAD FOR KSTP 2308 AND KPER 2 TO BINARY FILE HEADS FROM KSTP 1 AND KPER 2

 SFR-1 SETTING BUDGET TERMS FOR KSTP 2308 AND KPER 2 TO BUDGET FILE TERMS FROM KSTP 1 AND KPER 2

end timestep


start timestep kper="2" kstp="2309" mode="normal"


 FMI SETTING BUDGET TERMS FOR KSTP 2309 AND KPER 2 TO BUDGET FILE TERMS FROM KSTP 1 AND KPER 2

 FMI SETTING HEAD FOR KSTP 2309 AND KPER 2 TO BINARY FILE HEADS FROM KSTP 1 AND KPER 2

 SFR-1 SETTING BUDGET TERMS FOR KSTP 2309 AND KPER 2 TO BUDGET FILE TERMS FROM KSTP 1 AND KPER 2

end timestep


start timestep kper="2" kstp="2310" mode="normal"


 FMI SETTING BUDGET TERMS FOR KSTP 2310 AND KPER 2 TO BUDGET FILE TERMS FROM KSTP 1 AND KPER 2

 FMI SETTING HEAD FOR KSTP 2310 AND KPER 2 TO BINARY FILE HEADS FROM KSTP 1 AND KPER 2

 SFR-1 SETTING BUDGET TERMS FOR KSTP 2310 AND KPER 2 TO BUDGET FILE TERMS FROM KSTP 1 AND KPER 2

 CONCENTRATION WILL BE SAVED ON UNIT 1024 AT END OF TIME STEP 2310, STRESS PERIOD    2

end timestep


start timestep kper="2" kstp="2311" mode="normal"


 FMI SETTING BUDGET TERMS FOR KSTP 2311 AND KPER 2 TO BUDGET FILE TERMS FROM KSTP 1 AND KPER 2

 FMI SETTING HEAD FOR KSTP 2311 AND KPER 2 TO BINARY FILE HEADS FROM KSTP 1 AND KPER 2

 SFR-1 SETTING BUDGET TERMS FOR KSTP 2311 AND KPER 2 TO BUDGET FILE TERMS FROM KSTP 1 AND KPER 2

end timestep


start timestep kper="2" kstp="2312" mode="normal"


 FMI SETTING BUDGET TERMS FOR KSTP 2312 AND KPER 2 TO BUDGET FILE TERMS FROM KSTP 1 AND KPER 2

 FMI SETTING HEAD FOR KSTP 2312 AND KPER 2 TO BINARY FILE HEADS FROM KSTP 1 AND KPER 2

 SFR-1 SETTING BUDGET TERMS FOR KSTP 2312 AND KPER 2 TO BUDGET FILE TERMS FROM KSTP 1 AND KPER 2

end timestep


start timestep kper="2" kstp="2313" mode="normal"


 FMI SETTING BUDGET TERMS FOR KSTP 2313 AND KPER 2 TO BUDGET FILE TERMS FROM KSTP 1 AND KPER 2

 FMI SETTING HEAD FOR KSTP 2313 AND KPER 2 TO BINARY FILE HEADS FROM KSTP 1 AND KPER 2

 SFR-1 SETTING BUDGET TERMS FOR KSTP 2313 AND KPER 2 TO BUDGET FILE TERMS FROM KSTP 1 AND KPER 2

end timestep


start timestep kper="2" kstp="2314" mode="normal"


 FMI SETTING BUDGET TERMS FOR KSTP 2314 AND KPER 2 TO BUDGET FILE TERMS FROM KSTP 1 AND KPER 2

 FMI SETTING HEAD FOR KSTP 2314 AND KPER 2 TO BINARY FILE HEADS FROM KSTP 1 AND KPER 2

 SFR-1 SETTING BUDGET TERMS FOR KSTP 2314 AND KPER 2 TO BUDGET FILE TERMS FROM KSTP 1 AND KPER 2

end timestep


start timestep kper="2" kstp="2315" mode="normal"


 FMI SETTING BUDGET TERMS FOR KSTP 2315 AND KPER 2 TO BUDGET FILE TERMS FROM KSTP 1 AND KPER 2

 FMI SETTING HEAD FOR KSTP 2315 AND KPER 2 TO BINARY FILE HEADS FROM KSTP 1 AND KPER 2

 SFR-1 SETTING BUDGET TERMS FOR KSTP 2315 AND KPER 2 TO BUDGET FILE TERMS FROM KSTP 1 AND KPER 2

end timestep


start timestep kper="2" kstp="2316" mode="normal"


 FMI SETTING BUDGET TERMS FOR KSTP 2316 AND KPER 2 TO BUDGET FILE TERMS FROM KSTP 1 AND KPER 2

 FMI SETTING HEAD FOR KSTP 2316 AND KPER 2 TO BINARY FILE HEADS FROM KSTP 1 AND KPER 2

 SFR-1 SETTING BUDGET TERMS FOR KSTP 2316 AND KPER 2 TO BUDGET FILE TERMS FROM KSTP 1 AND KPER 2

end timestep


start timestep kper="2" kstp="2317" mode="normal"


 FMI SETTING BUDGET TERMS FOR KSTP 2317 AND KPER 2 TO BUDGET FILE TERMS FROM KSTP 1 AND KPER 2

 FMI SETTING HEAD FOR KSTP 2317 AND KPER 2 TO BINARY FILE HEADS FROM KSTP 1 AND KPER 2

 SFR-1 SETTING BUDGET TERMS FOR KSTP 2317 AND KPER 2 TO BUDGET FILE TERMS FROM KSTP 1 AND KPER 2

end timestep


start timestep kper="2" kstp="2318" mode="normal"


 FMI SETTING BUDGET TERMS FOR KSTP 2318 AND KPER 2 TO BUDGET FILE TERMS FROM KSTP 1 AND KPER 2

 FMI SETTING HEAD FOR KSTP 2318 AND KPER 2 TO BINARY FILE HEADS FROM KSTP 1 AND KPER 2

 SFR-1 SETTING BUDGET TERMS FOR KSTP 2318 AND KPER 2 TO BUDGET FILE TERMS FROM KSTP 1 AND KPER 2

end timestep


start timestep kper="2" kstp="2319" mode="normal"


 FMI SETTING BUDGET TERMS FOR KSTP 2319 AND KPER 2 TO BUDGET FILE TERMS FROM KSTP 1 AND KPER 2

 FMI SETTING HEAD FOR KSTP 2319 AND KPER 2 TO BINARY FILE HEADS FROM KSTP 1 AND KPER 2

 SFR-1 SETTING BUDGET TERMS FOR KSTP 2319 AND KPER 2 TO BUDGET FILE TERMS FROM KSTP 1 AND KPER 2

end timestep


start timestep kper="2" kstp="2320" mode="normal"


 FMI SETTING BUDGET TERMS FOR KSTP 2320 AND KPER 2 TO BUDGET FILE TERMS FROM KSTP 1 AND KPER 2

 FMI SETTING HEAD FOR KSTP 2320 AND KPER 2 TO BINARY FILE HEADS FROM KSTP 1 AND KPER 2

 SFR-1 SETTING BUDGET TERMS FOR KSTP 2320 AND KPER 2 TO BUDGET FILE TERMS FROM KSTP 1 AND KPER 2

 CONCENTRATION WILL BE SAVED ON UNIT 1024 AT END OF TIME STEP 2320, STRESS PERIOD    2

end timestep


start timestep kper="2" kstp="2321" mode="normal"


 FMI SETTING BUDGET TERMS FOR KSTP 2321 AND KPER 2 TO BUDGET FILE TERMS FROM KSTP 1 AND KPER 2

 FMI SETTING HEAD FOR KSTP 2321 AND KPER 2 TO BINARY FILE HEADS FROM KSTP 1 AND KPER 2

 SFR-1 SETTING BUDGET TERMS FOR KSTP 2321 AND KPER 2 TO BUDGET FILE TERMS FROM KSTP 1 AND KPER 2

end timestep


start timestep kper="2" kstp="2322" mode="normal"


 FMI SETTING BUDGET TERMS FOR KSTP 2322 AND KPER 2 TO BUDGET FILE TERMS FROM KSTP 1 AND KPER 2

 FMI SETTING HEAD FOR KSTP 2322 AND KPER 2 TO BINARY FILE HEADS FROM KSTP 1 AND KPER 2

 SFR-1 SETTING BUDGET TERMS FOR KSTP 2322 AND KPER 2 TO BUDGET FILE TERMS FROM KSTP 1 AND KPER 2

end timestep


start timestep kper="2" kstp="2323" mode="normal"


 FMI SETTING BUDGET TERMS FOR KSTP 2323 AND KPER 2 TO BUDGET FILE TERMS FROM KSTP 1 AND KPER 2

 FMI SETTING HEAD FOR KSTP 2323 AND KPER 2 TO BINARY FILE HEADS FROM KSTP 1 AND KPER 2

 SFR-1 SETTING BUDGET TERMS FOR KSTP 2323 AND KPER 2 TO BUDGET FILE TERMS FROM KSTP 1 AND KPER 2

end timestep


start timestep kper="2" kstp="2324" mode="normal"


 FMI SETTING BUDGET TERMS FOR KSTP 2324 AND KPER 2 TO BUDGET FILE TERMS FROM KSTP 1 AND KPER 2

 FMI SETTING HEAD FOR KSTP 2324 AND KPER 2 TO BINARY FILE HEADS FROM KSTP 1 AND KPER 2

 SFR-1 SETTING BUDGET TERMS FOR KSTP 2324 AND KPER 2 TO BUDGET FILE TERMS FROM KSTP 1 AND KPER 2

end timestep


start timestep kper="2" kstp="2325" mode="normal"


 FMI SETTING BUDGET TERMS FOR KSTP 2325 AND KPER 2 TO BUDGET FILE TERMS FROM KSTP 1 AND KPER 2

 FMI SETTING HEAD FOR KSTP 2325 AND KPER 2 TO BINARY FILE HEADS FROM KSTP 1 AND KPER 2

 SFR-1 SETTING BUDGET TERMS FOR KSTP 2325 AND KPER 2 TO BUDGET FILE TERMS FROM KSTP 1 AND KPER 2

end timestep


start timestep kper="2" kstp="2326" mode="normal"


 FMI SETTING BUDGET TERMS FOR KSTP 2326 AND KPER 2 TO BUDGET FILE TERMS FROM KSTP 1 AND KPER 2

 FMI SETTING HEAD FOR KSTP 2326 AND KPER 2 TO BINARY FILE HEADS FROM KSTP 1 AND KPER 2

 SFR-1 SETTING BUDGET TERMS FOR KSTP 2326 AND KPER 2 TO BUDGET FILE TERMS FROM KSTP 1 AND KPER 2

end timestep


start timestep kper="2" kstp="2327" mode="normal"


 FMI SETTING BUDGET TERMS FOR KSTP 2327 AND KPER 2 TO BUDGET FILE TERMS FROM KSTP 1 AND KPER 2

 FMI SETTING HEAD FOR KSTP 2327 AND KPER 2 TO BINARY FILE HEADS FROM KSTP 1 AND KPER 2

 SFR-1 SETTING BUDGET TERMS FOR KSTP 2327 AND KPER 2 TO BUDGET FILE TERMS FROM KSTP 1 AND KPER 2

end timestep


start timestep kper="2" kstp="2328" mode="normal"


 FMI SETTING BUDGET TERMS FOR KSTP 2328 AND KPER 2 TO BUDGET FILE TERMS FROM KSTP 1 AND KPER 2

 FMI SETTING HEAD FOR KSTP 2328 AND KPER 2 TO BINARY FILE HEADS FROM KSTP 1 AND KPER 2

 SFR-1 SETTING BUDGET TERMS FOR KSTP 2328 AND KPER 2 TO BUDGET FILE TERMS FROM KSTP 1 AND KPER 2

end timestep


start timestep kper="2" kstp="2329" mode="normal"


 FMI SETTING BUDGET TERMS FOR KSTP 2329 AND KPER 2 TO BUDGET FILE TERMS FROM KSTP 1 AND KPER 2

 FMI SETTING HEAD FOR KSTP 2329 AND KPER 2 TO BINARY FILE HEADS FROM KSTP 1 AND KPER 2

 SFR-1 SETTING BUDGET TERMS FOR KSTP 2329 AND KPER 2 TO BUDGET FILE TERMS FROM KSTP 1 AND KPER 2

end timestep


start timestep kper="2" kstp="2330" mode="normal"


 FMI SETTING BUDGET TERMS FOR KSTP 2330 AND KPER 2 TO BUDGET FILE TERMS FROM KSTP 1 AND KPER 2

 FMI SETTING HEAD FOR KSTP 2330 AND KPER 2 TO BINARY FILE HEADS FROM KSTP 1 AND KPER 2

 SFR-1 SETTING BUDGET TERMS FOR KSTP 2330 AND KPER 2 TO BUDGET FILE TERMS FROM KSTP 1 AND KPER 2

 CONCENTRATION WILL BE SAVED ON UNIT 1024 AT END OF TIME STEP 2330, STRESS PERIOD    2

end timestep


start timestep kper="2" kstp="2331" mode="normal"


 FMI SETTING BUDGET TERMS FOR KSTP 2331 AND KPER 2 TO BUDGET FILE TERMS FROM KSTP 1 AND KPER 2

 FMI SETTING HEAD FOR KSTP 2331 AND KPER 2 TO BINARY FILE HEADS FROM KSTP 1 AND KPER 2

 SFR-1 SETTING BUDGET TERMS FOR KSTP 2331 AND KPER 2 TO BUDGET FILE TERMS FROM KSTP 1 AND KPER 2

end timestep


start timestep kper="2" kstp="2332" mode="normal"


 FMI SETTING BUDGET TERMS FOR KSTP 2332 AND KPER 2 TO BUDGET FILE TERMS FROM KSTP 1 AND KPER 2

 FMI SETTING HEAD FOR KSTP 2332 AND KPER 2 TO BINARY FILE HEADS FROM KSTP 1 AND KPER 2

 SFR-1 SETTING BUDGET TERMS FOR KSTP 2332 AND KPER 2 TO BUDGET FILE TERMS FROM KSTP 1 AND KPER 2

end timestep


start timestep kper="2" kstp="2333" mode="normal"


 FMI SETTING BUDGET TERMS FOR KSTP 2333 AND KPER 2 TO BUDGET FILE TERMS FROM KSTP 1 AND KPER 2

 FMI SETTING HEAD FOR KSTP 2333 AND KPER 2 TO BINARY FILE HEADS FROM KSTP 1 AND KPER 2

 SFR-1 SETTING BUDGET TERMS FOR KSTP 2333 AND KPER 2 TO BUDGET FILE TERMS FROM KSTP 1 AND KPER 2

end timestep


start timestep kper="2" kstp="2334" mode="normal"


 FMI SETTING BUDGET TERMS FOR KSTP 2334 AND KPER 2 TO BUDGET FILE TERMS FROM KSTP 1 AND KPER 2

 FMI SETTING HEAD FOR KSTP 2334 AND KPER 2 TO BINARY FILE HEADS FROM KSTP 1 AND KPER 2

 SFR-1 SETTING BUDGET TERMS FOR KSTP 2334 AND KPER 2 TO BUDGET FILE TERMS FROM KSTP 1 AND KPER 2

end timestep


start timestep kper="2" kstp="2335" mode="normal"


 FMI SETTING BUDGET TERMS FOR KSTP 2335 AND KPER 2 TO BUDGET FILE TERMS FROM KSTP 1 AND KPER 2

 FMI SETTING HEAD FOR KSTP 2335 AND KPER 2 TO BINARY FILE HEADS FROM KSTP 1 AND KPER 2

 SFR-1 SETTING BUDGET TERMS FOR KSTP 2335 AND KPER 2 TO BUDGET FILE TERMS FROM KSTP 1 AND KPER 2

end timestep


start timestep kper="2" kstp="2336" mode="normal"


 FMI SETTING BUDGET TERMS FOR KSTP 2336 AND KPER 2 TO BUDGET FILE TERMS FROM KSTP 1 AND KPER 2

 FMI SETTING HEAD FOR KSTP 2336 AND KPER 2 TO BINARY FILE HEADS FROM KSTP 1 AND KPER 2

 SFR-1 SETTING BUDGET TERMS FOR KSTP 2336 AND KPER 2 TO BUDGET FILE TERMS FROM KSTP 1 AND KPER 2

end timestep


start timestep kper="2" kstp="2337" mode="normal"


 FMI SETTING BUDGET TERMS FOR KSTP 2337 AND KPER 2 TO BUDGET FILE TERMS FROM KSTP 1 AND KPER 2

 FMI SETTING HEAD FOR KSTP 2337 AND KPER 2 TO BINARY FILE HEADS FROM KSTP 1 AND KPER 2

 SFR-1 SETTING BUDGET TERMS FOR KSTP 2337 AND KPER 2 TO BUDGET FILE TERMS FROM KSTP 1 AND KPER 2

end timestep


start timestep kper="2" kstp="2338" mode="normal"


 FMI SETTING BUDGET TERMS FOR KSTP 2338 AND KPER 2 TO BUDGET FILE TERMS FROM KSTP 1 AND KPER 2

 FMI SETTING HEAD FOR KSTP 2338 AND KPER 2 TO BINARY FILE HEADS FROM KSTP 1 AND KPER 2

 SFR-1 SETTING BUDGET TERMS FOR KSTP 2338 AND KPER 2 TO BUDGET FILE TERMS FROM KSTP 1 AND KPER 2

end timestep


start timestep kper="2" kstp="2339" mode="normal"


 FMI SETTING BUDGET TERMS FOR KSTP 2339 AND KPER 2 TO BUDGET FILE TERMS FROM KSTP 1 AND KPER 2

 FMI SETTING HEAD FOR KSTP 2339 AND KPER 2 TO BINARY FILE HEADS FROM KSTP 1 AND KPER 2

 SFR-1 SETTING BUDGET TERMS FOR KSTP 2339 AND KPER 2 TO BUDGET FILE TERMS FROM KSTP 1 AND KPER 2

end timestep


start timestep kper="2" kstp="2340" mode="normal"


 FMI SETTING BUDGET TERMS FOR KSTP 2340 AND KPER 2 TO BUDGET FILE TERMS FROM KSTP 1 AND KPER 2

 FMI SETTING HEAD FOR KSTP 2340 AND KPER 2 TO BINARY FILE HEADS FROM KSTP 1 AND KPER 2

 SFR-1 SETTING BUDGET TERMS FOR KSTP 2340 AND KPER 2 TO BUDGET FILE TERMS FROM KSTP 1 AND KPER 2

 CONCENTRATION WILL BE SAVED ON UNIT 1024 AT END OF TIME STEP 2340, STRESS PERIOD    2

end timestep


start timestep kper="2" kstp="2341" mode="normal"


 FMI SETTING BUDGET TERMS FOR KSTP 2341 AND KPER 2 TO BUDGET FILE TERMS FROM KSTP 1 AND KPER 2

 FMI SETTING HEAD FOR KSTP 2341 AND KPER 2 TO BINARY FILE HEADS FROM KSTP 1 AND KPER 2

 SFR-1 SETTING BUDGET TERMS FOR KSTP 2341 AND KPER 2 TO BUDGET FILE TERMS FROM KSTP 1 AND KPER 2

end timestep


start timestep kper="2" kstp="2342" mode="normal"


 FMI SETTING BUDGET TERMS FOR KSTP 2342 AND KPER 2 TO BUDGET FILE TERMS FROM KSTP 1 AND KPER 2

 FMI SETTING HEAD FOR KSTP 2342 AND KPER 2 TO BINARY FILE HEADS FROM KSTP 1 AND KPER 2

 SFR-1 SETTING BUDGET TERMS FOR KSTP 2342 AND KPER 2 TO BUDGET FILE TERMS FROM KSTP 1 AND KPER 2

end timestep


start timestep kper="2" kstp="2343" mode="normal"


 FMI SETTING BUDGET TERMS FOR KSTP 2343 AND KPER 2 TO BUDGET FILE TERMS FROM KSTP 1 AND KPER 2

 FMI SETTING HEAD FOR KSTP 2343 AND KPER 2 TO BINARY FILE HEADS FROM KSTP 1 AND KPER 2

 SFR-1 SETTING BUDGET TERMS FOR KSTP 2343 AND KPER 2 TO BUDGET FILE TERMS FROM KSTP 1 AND KPER 2

end timestep


start timestep kper="2" kstp="2344" mode="normal"


 FMI SETTING BUDGET TERMS FOR KSTP 2344 AND KPER 2 TO BUDGET FILE TERMS FROM KSTP 1 AND KPER 2

 FMI SETTING HEAD FOR KSTP 2344 AND KPER 2 TO BINARY FILE HEADS FROM KSTP 1 AND KPER 2

 SFR-1 SETTING BUDGET TERMS FOR KSTP 2344 AND KPER 2 TO BUDGET FILE TERMS FROM KSTP 1 AND KPER 2

end timestep


start timestep kper="2" kstp="2345" mode="normal"


 FMI SETTING BUDGET TERMS FOR KSTP 2345 AND KPER 2 TO BUDGET FILE TERMS FROM KSTP 1 AND KPER 2

 FMI SETTING HEAD FOR KSTP 2345 AND KPER 2 TO BINARY FILE HEADS FROM KSTP 1 AND KPER 2

 SFR-1 SETTING BUDGET TERMS FOR KSTP 2345 AND KPER 2 TO BUDGET FILE TERMS FROM KSTP 1 AND KPER 2

end timestep


start timestep kper="2" kstp="2346" mode="normal"


 FMI SETTING BUDGET TERMS FOR KSTP 2346 AND KPER 2 TO BUDGET FILE TERMS FROM KSTP 1 AND KPER 2

 FMI SETTING HEAD FOR KSTP 2346 AND KPER 2 TO BINARY FILE HEADS FROM KSTP 1 AND KPER 2

 SFR-1 SETTING BUDGET TERMS FOR KSTP 2346 AND KPER 2 TO BUDGET FILE TERMS FROM KSTP 1 AND KPER 2

end timestep


start timestep kper="2" kstp="2347" mode="normal"


 FMI SETTING BUDGET TERMS FOR KSTP 2347 AND KPER 2 TO BUDGET FILE TERMS FROM KSTP 1 AND KPER 2

 FMI SETTING HEAD FOR KSTP 2347 AND KPER 2 TO BINARY FILE HEADS FROM KSTP 1 AND KPER 2

 SFR-1 SETTING BUDGET TERMS FOR KSTP 2347 AND KPER 2 TO BUDGET FILE TERMS FROM KSTP 1 AND KPER 2

end timestep


start timestep kper="2" kstp="2348" mode="normal"


 FMI SETTING BUDGET TERMS FOR KSTP 2348 AND KPER 2 TO BUDGET FILE TERMS FROM KSTP 1 AND KPER 2

 FMI SETTING HEAD FOR KSTP 2348 AND KPER 2 TO BINARY FILE HEADS FROM KSTP 1 AND KPER 2

 SFR-1 SETTING BUDGET TERMS FOR KSTP 2348 AND KPER 2 TO BUDGET FILE TERMS FROM KSTP 1 AND KPER 2

end timestep


start timestep kper="2" kstp="2349" mode="normal"


 FMI SETTING BUDGET TERMS FOR KSTP 2349 AND KPER 2 TO BUDGET FILE TERMS FROM KSTP 1 AND KPER 2

 FMI SETTING HEAD FOR KSTP 2349 AND KPER 2 TO BINARY FILE HEADS FROM KSTP 1 AND KPER 2

 SFR-1 SETTING BUDGET TERMS FOR KSTP 2349 AND KPER 2 TO BUDGET FILE TERMS FROM KSTP 1 AND KPER 2

end timestep


start timestep kper="2" kstp="2350" mode="normal"


 FMI SETTING BUDGET TERMS FOR KSTP 2350 AND KPER 2 TO BUDGET FILE TERMS FROM KSTP 1 AND KPER 2

 FMI SETTING HEAD FOR KSTP 2350 AND KPER 2 TO BINARY FILE HEADS FROM KSTP 1 AND KPER 2

 SFR-1 SETTING BUDGET TERMS FOR KSTP 2350 AND KPER 2 TO BUDGET FILE TERMS FROM KSTP 1 AND KPER 2

 CONCENTRATION WILL BE SAVED ON UNIT 1024 AT END OF TIME STEP 2350, STRESS PERIOD    2

end timestep


start timestep kper="2" kstp="2351" mode="normal"


 FMI SETTING BUDGET TERMS FOR KSTP 2351 AND KPER 2 TO BUDGET FILE TERMS FROM KSTP 1 AND KPER 2

 FMI SETTING HEAD FOR KSTP 2351 AND KPER 2 TO BINARY FILE HEADS FROM KSTP 1 AND KPER 2

 SFR-1 SETTING BUDGET TERMS FOR KSTP 2351 AND KPER 2 TO BUDGET FILE TERMS FROM KSTP 1 AND KPER 2

end timestep


start timestep kper="2" kstp="2352" mode="normal"


 FMI SETTING BUDGET TERMS FOR KSTP 2352 AND KPER 2 TO BUDGET FILE TERMS FROM KSTP 1 AND KPER 2

 FMI SETTING HEAD FOR KSTP 2352 AND KPER 2 TO BINARY FILE HEADS FROM KSTP 1 AND KPER 2

 SFR-1 SETTING BUDGET TERMS FOR KSTP 2352 AND KPER 2 TO BUDGET FILE TERMS FROM KSTP 1 AND KPER 2

end timestep


start timestep kper="2" kstp="2353" mode="normal"


 FMI SETTING BUDGET TERMS FOR KSTP 2353 AND KPER 2 TO BUDGET FILE TERMS FROM KSTP 1 AND KPER 2

 FMI SETTING HEAD FOR KSTP 2353 AND KPER 2 TO BINARY FILE HEADS FROM KSTP 1 AND KPER 2

 SFR-1 SETTING BUDGET TERMS FOR KSTP 2353 AND KPER 2 TO BUDGET FILE TERMS FROM KSTP 1 AND KPER 2

end timestep


start timestep kper="2" kstp="2354" mode="normal"


 FMI SETTING BUDGET TERMS FOR KSTP 2354 AND KPER 2 TO BUDGET FILE TERMS FROM KSTP 1 AND KPER 2

 FMI SETTING HEAD FOR KSTP 2354 AND KPER 2 TO BINARY FILE HEADS FROM KSTP 1 AND KPER 2

 SFR-1 SETTING BUDGET TERMS FOR KSTP 2354 AND KPER 2 TO BUDGET FILE TERMS FROM KSTP 1 AND KPER 2

end timestep


start timestep kper="2" kstp="2355" mode="normal"


 FMI SETTING BUDGET TERMS FOR KSTP 2355 AND KPER 2 TO BUDGET FILE TERMS FROM KSTP 1 AND KPER 2

 FMI SETTING HEAD FOR KSTP 2355 AND KPER 2 TO BINARY FILE HEADS FROM KSTP 1 AND KPER 2

 SFR-1 SETTING BUDGET TERMS FOR KSTP 2355 AND KPER 2 TO BUDGET FILE TERMS FROM KSTP 1 AND KPER 2

end timestep


start timestep kper="2" kstp="2356" mode="normal"


 FMI SETTING BUDGET TERMS FOR KSTP 2356 AND KPER 2 TO BUDGET FILE TERMS FROM KSTP 1 AND KPER 2

 FMI SETTING HEAD FOR KSTP 2356 AND KPER 2 TO BINARY FILE HEADS FROM KSTP 1 AND KPER 2

 SFR-1 SETTING BUDGET TERMS FOR KSTP 2356 AND KPER 2 TO BUDGET FILE TERMS FROM KSTP 1 AND KPER 2

end timestep


start timestep kper="2" kstp="2357" mode="normal"


 FMI SETTING BUDGET TERMS FOR KSTP 2357 AND KPER 2 TO BUDGET FILE TERMS FROM KSTP 1 AND KPER 2

 FMI SETTING HEAD FOR KSTP 2357 AND KPER 2 TO BINARY FILE HEADS FROM KSTP 1 AND KPER 2

 SFR-1 SETTING BUDGET TERMS FOR KSTP 2357 AND KPER 2 TO BUDGET FILE TERMS FROM KSTP 1 AND KPER 2

end timestep


start timestep kper="2" kstp="2358" mode="normal"


 FMI SETTING BUDGET TERMS FOR KSTP 2358 AND KPER 2 TO BUDGET FILE TERMS FROM KSTP 1 AND KPER 2

 FMI SETTING HEAD FOR KSTP 2358 AND KPER 2 TO BINARY FILE HEADS FROM KSTP 1 AND KPER 2

 SFR-1 SETTING BUDGET TERMS FOR KSTP 2358 AND KPER 2 TO BUDGET FILE TERMS FROM KSTP 1 AND KPER 2

end timestep


start timestep kper="2" kstp="2359" mode="normal"


 FMI SETTING BUDGET TERMS FOR KSTP 2359 AND KPER 2 TO BUDGET FILE TERMS FROM KSTP 1 AND KPER 2

 FMI SETTING HEAD FOR KSTP 2359 AND KPER 2 TO BINARY FILE HEADS FROM KSTP 1 AND KPER 2

 SFR-1 SETTING BUDGET TERMS FOR KSTP 2359 AND KPER 2 TO BUDGET FILE TERMS FROM KSTP 1 AND KPER 2

end timestep


start timestep kper="2" kstp="2360" mode="normal"


 FMI SETTING BUDGET TERMS FOR KSTP 2360 AND KPER 2 TO BUDGET FILE TERMS FROM KSTP 1 AND KPER 2

 FMI SETTING HEAD FOR KSTP 2360 AND KPER 2 TO BINARY FILE HEADS FROM KSTP 1 AND KPER 2

 SFR-1 SETTING BUDGET TERMS FOR KSTP 2360 AND KPER 2 TO BUDGET FILE TERMS FROM KSTP 1 AND KPER 2

 CONCENTRATION WILL BE SAVED ON UNIT 1024 AT END OF TIME STEP 2360, STRESS PERIOD    2

end timestep


start timestep kper="2" kstp="2361" mode="normal"


 FMI SETTING BUDGET TERMS FOR KSTP 2361 AND KPER 2 TO BUDGET FILE TERMS FROM KSTP 1 AND KPER 2

 FMI SETTING HEAD FOR KSTP 2361 AND KPER 2 TO BINARY FILE HEADS FROM KSTP 1 AND KPER 2

 SFR-1 SETTING BUDGET TERMS FOR KSTP 2361 AND KPER 2 TO BUDGET FILE TERMS FROM KSTP 1 AND KPER 2

end timestep


start timestep kper="2" kstp="2362" mode="normal"


 FMI SETTING BUDGET TERMS FOR KSTP 2362 AND KPER 2 TO BUDGET FILE TERMS FROM KSTP 1 AND KPER 2

 FMI SETTING HEAD FOR KSTP 2362 AND KPER 2 TO BINARY FILE HEADS FROM KSTP 1 AND KPER 2

 SFR-1 SETTING BUDGET TERMS FOR KSTP 2362 AND KPER 2 TO BUDGET FILE TERMS FROM KSTP 1 AND KPER 2

end timestep


start timestep kper="2" kstp="2363" mode="normal"


 FMI SETTING BUDGET TERMS FOR KSTP 2363 AND KPER 2 TO BUDGET FILE TERMS FROM KSTP 1 AND KPER 2

 FMI SETTING HEAD FOR KSTP 2363 AND KPER 2 TO BINARY FILE HEADS FROM KSTP 1 AND KPER 2

 SFR-1 SETTING BUDGET TERMS FOR KSTP 2363 AND KPER 2 TO BUDGET FILE TERMS FROM KSTP 1 AND KPER 2

end timestep


start timestep kper="2" kstp="2364" mode="normal"


 FMI SETTING BUDGET TERMS FOR KSTP 2364 AND KPER 2 TO BUDGET FILE TERMS FROM KSTP 1 AND KPER 2

 FMI SETTING HEAD FOR KSTP 2364 AND KPER 2 TO BINARY FILE HEADS FROM KSTP 1 AND KPER 2

 SFR-1 SETTING BUDGET TERMS FOR KSTP 2364 AND KPER 2 TO BUDGET FILE TERMS FROM KSTP 1 AND KPER 2

end timestep


start timestep kper="2" kstp="2365" mode="normal"


 FMI SETTING BUDGET TERMS FOR KSTP 2365 AND KPER 2 TO BUDGET FILE TERMS FROM KSTP 1 AND KPER 2

 FMI SETTING HEAD FOR KSTP 2365 AND KPER 2 TO BINARY FILE HEADS FROM KSTP 1 AND KPER 2

 SFR-1 SETTING BUDGET TERMS FOR KSTP 2365 AND KPER 2 TO BUDGET FILE TERMS FROM KSTP 1 AND KPER 2

end timestep


start timestep kper="2" kstp="2366" mode="normal"


 FMI SETTING BUDGET TERMS FOR KSTP 2366 AND KPER 2 TO BUDGET FILE TERMS FROM KSTP 1 AND KPER 2

 FMI SETTING HEAD FOR KSTP 2366 AND KPER 2 TO BINARY FILE HEADS FROM KSTP 1 AND KPER 2

 SFR-1 SETTING BUDGET TERMS FOR KSTP 2366 AND KPER 2 TO BUDGET FILE TERMS FROM KSTP 1 AND KPER 2

end timestep


start timestep kper="2" kstp="2367" mode="normal"


 FMI SETTING BUDGET TERMS FOR KSTP 2367 AND KPER 2 TO BUDGET FILE TERMS FROM KSTP 1 AND KPER 2

 FMI SETTING HEAD FOR KSTP 2367 AND KPER 2 TO BINARY FILE HEADS FROM KSTP 1 AND KPER 2

 SFR-1 SETTING BUDGET TERMS FOR KSTP 2367 AND KPER 2 TO BUDGET FILE TERMS FROM KSTP 1 AND KPER 2

end timestep


start timestep kper="2" kstp="2368" mode="normal"


 FMI SETTING BUDGET TERMS FOR KSTP 2368 AND KPER 2 TO BUDGET FILE TERMS FROM KSTP 1 AND KPER 2

 FMI SETTING HEAD FOR KSTP 2368 AND KPER 2 TO BINARY FILE HEADS FROM KSTP 1 AND KPER 2

 SFR-1 SETTING BUDGET TERMS FOR KSTP 2368 AND KPER 2 TO BUDGET FILE TERMS FROM KSTP 1 AND KPER 2

end timestep


start timestep kper="2" kstp="2369" mode="normal"


 FMI SETTING BUDGET TERMS FOR KSTP 2369 AND KPER 2 TO BUDGET FILE TERMS FROM KSTP 1 AND KPER 2

 FMI SETTING HEAD FOR KSTP 2369 AND KPER 2 TO BINARY FILE HEADS FROM KSTP 1 AND KPER 2

 SFR-1 SETTING BUDGET TERMS FOR KSTP 2369 AND KPER 2 TO BUDGET FILE TERMS FROM KSTP 1 AND KPER 2

end timestep


start timestep kper="2" kstp="2370" mode="normal"


 FMI SETTING BUDGET TERMS FOR KSTP 2370 AND KPER 2 TO BUDGET FILE TERMS FROM KSTP 1 AND KPER 2

 FMI SETTING HEAD FOR KSTP 2370 AND KPER 2 TO BINARY FILE HEADS FROM KSTP 1 AND KPER 2

 SFR-1 SETTING BUDGET TERMS FOR KSTP 2370 AND KPER 2 TO BUDGET FILE TERMS FROM KSTP 1 AND KPER 2

 CONCENTRATION WILL BE SAVED ON UNIT 1024 AT END OF TIME STEP 2370, STRESS PERIOD    2

end timestep


start timestep kper="2" kstp="2371" mode="normal"


 FMI SETTING BUDGET TERMS FOR KSTP 2371 AND KPER 2 TO BUDGET FILE TERMS FROM KSTP 1 AND KPER 2

 FMI SETTING HEAD FOR KSTP 2371 AND KPER 2 TO BINARY FILE HEADS FROM KSTP 1 AND KPER 2

 SFR-1 SETTING BUDGET TERMS FOR KSTP 2371 AND KPER 2 TO BUDGET FILE TERMS FROM KSTP 1 AND KPER 2

end timestep


start timestep kper="2" kstp="2372" mode="normal"


 FMI SETTING BUDGET TERMS FOR KSTP 2372 AND KPER 2 TO BUDGET FILE TERMS FROM KSTP 1 AND KPER 2

 FMI SETTING HEAD FOR KSTP 2372 AND KPER 2 TO BINARY FILE HEADS FROM KSTP 1 AND KPER 2

 SFR-1 SETTING BUDGET TERMS FOR KSTP 2372 AND KPER 2 TO BUDGET FILE TERMS FROM KSTP 1 AND KPER 2

end timestep


start timestep kper="2" kstp="2373" mode="normal"


 FMI SETTING BUDGET TERMS FOR KSTP 2373 AND KPER 2 TO BUDGET FILE TERMS FROM KSTP 1 AND KPER 2

 FMI SETTING HEAD FOR KSTP 2373 AND KPER 2 TO BINARY FILE HEADS FROM KSTP 1 AND KPER 2

 SFR-1 SETTING BUDGET TERMS FOR KSTP 2373 AND KPER 2 TO BUDGET FILE TERMS FROM KSTP 1 AND KPER 2

end timestep


start timestep kper="2" kstp="2374" mode="normal"


 FMI SETTING BUDGET TERMS FOR KSTP 2374 AND KPER 2 TO BUDGET FILE TERMS FROM KSTP 1 AND KPER 2

 FMI SETTING HEAD FOR KSTP 2374 AND KPER 2 TO BINARY FILE HEADS FROM KSTP 1 AND KPER 2

 SFR-1 SETTING BUDGET TERMS FOR KSTP 2374 AND KPER 2 TO BUDGET FILE TERMS FROM KSTP 1 AND KPER 2

end timestep


start timestep kper="2" kstp="2375" mode="normal"


 FMI SETTING BUDGET TERMS FOR KSTP 2375 AND KPER 2 TO BUDGET FILE TERMS FROM KSTP 1 AND KPER 2

 FMI SETTING HEAD FOR KSTP 2375 AND KPER 2 TO BINARY FILE HEADS FROM KSTP 1 AND KPER 2

 SFR-1 SETTING BUDGET TERMS FOR KSTP 2375 AND KPER 2 TO BUDGET FILE TERMS FROM KSTP 1 AND KPER 2

end timestep


start timestep kper="2" kstp="2376" mode="normal"


 FMI SETTING BUDGET TERMS FOR KSTP 2376 AND KPER 2 TO BUDGET FILE TERMS FROM KSTP 1 AND KPER 2

 FMI SETTING HEAD FOR KSTP 2376 AND KPER 2 TO BINARY FILE HEADS FROM KSTP 1 AND KPER 2

 SFR-1 SETTING BUDGET TERMS FOR KSTP 2376 AND KPER 2 TO BUDGET FILE TERMS FROM KSTP 1 AND KPER 2

end timestep


start timestep kper="2" kstp="2377" mode="normal"


 FMI SETTING BUDGET TERMS FOR KSTP 2377 AND KPER 2 TO BUDGET FILE TERMS FROM KSTP 1 AND KPER 2

 FMI SETTING HEAD FOR KSTP 2377 AND KPER 2 TO BINARY FILE HEADS FROM KSTP 1 AND KPER 2

 SFR-1 SETTING BUDGET TERMS FOR KSTP 2377 AND KPER 2 TO BUDGET FILE TERMS FROM KSTP 1 AND KPER 2

end timestep


start timestep kper="2" kstp="2378" mode="normal"


 FMI SETTING BUDGET TERMS FOR KSTP 2378 AND KPER 2 TO BUDGET FILE TERMS FROM KSTP 1 AND KPER 2

 FMI SETTING HEAD FOR KSTP 2378 AND KPER 2 TO BINARY FILE HEADS FROM KSTP 1 AND KPER 2

 SFR-1 SETTING BUDGET TERMS FOR KSTP 2378 AND KPER 2 TO BUDGET FILE TERMS FROM KSTP 1 AND KPER 2

end timestep


start timestep kper="2" kstp="2379" mode="normal"


 FMI SETTING BUDGET TERMS FOR KSTP 2379 AND KPER 2 TO BUDGET FILE TERMS FROM KSTP 1 AND KPER 2

 FMI SETTING HEAD FOR KSTP 2379 AND KPER 2 TO BINARY FILE HEADS FROM KSTP 1 AND KPER 2

 SFR-1 SETTING BUDGET TERMS FOR KSTP 2379 AND KPER 2 TO BUDGET FILE TERMS FROM KSTP 1 AND KPER 2

end timestep


start timestep kper="2" kstp="2380" mode="normal"


 FMI SETTING BUDGET TERMS FOR KSTP 2380 AND KPER 2 TO BUDGET FILE TERMS FROM KSTP 1 AND KPER 2

 FMI SETTING HEAD FOR KSTP 2380 AND KPER 2 TO BINARY FILE HEADS FROM KSTP 1 AND KPER 2

 SFR-1 SETTING BUDGET TERMS FOR KSTP 2380 AND KPER 2 TO BUDGET FILE TERMS FROM KSTP 1 AND KPER 2

 CONCENTRATION WILL BE SAVED ON UNIT 1024 AT END OF TIME STEP 2380, STRESS PERIOD    2

end timestep


start timestep kper="2" kstp="2381" mode="normal"


 FMI SETTING BUDGET TERMS FOR KSTP 2381 AND KPER 2 TO BUDGET FILE TERMS FROM KSTP 1 AND KPER 2

 FMI SETTING HEAD FOR KSTP 2381 AND KPER 2 TO BINARY FILE HEADS FROM KSTP 1 AND KPER 2

 SFR-1 SETTING BUDGET TERMS FOR KSTP 2381 AND KPER 2 TO BUDGET FILE TERMS FROM KSTP 1 AND KPER 2

end timestep


start timestep kper="2" kstp="2382" mode="normal"


 FMI SETTING BUDGET TERMS FOR KSTP 2382 AND KPER 2 TO BUDGET FILE TERMS FROM KSTP 1 AND KPER 2

 FMI SETTING HEAD FOR KSTP 2382 AND KPER 2 TO BINARY FILE HEADS FROM KSTP 1 AND KPER 2

 SFR-1 SETTING BUDGET TERMS FOR KSTP 2382 AND KPER 2 TO BUDGET FILE TERMS FROM KSTP 1 AND KPER 2

end timestep


start timestep kper="2" kstp="2383" mode="normal"


 FMI SETTING BUDGET TERMS FOR KSTP 2383 AND KPER 2 TO BUDGET FILE TERMS FROM KSTP 1 AND KPER 2

 FMI SETTING HEAD FOR KSTP 2383 AND KPER 2 TO BINARY FILE HEADS FROM KSTP 1 AND KPER 2

 SFR-1 SETTING BUDGET TERMS FOR KSTP 2383 AND KPER 2 TO BUDGET FILE TERMS FROM KSTP 1 AND KPER 2

end timestep


start timestep kper="2" kstp="2384" mode="normal"


 FMI SETTING BUDGET TERMS FOR KSTP 2384 AND KPER 2 TO BUDGET FILE TERMS FROM KSTP 1 AND KPER 2

 FMI SETTING HEAD FOR KSTP 2384 AND KPER 2 TO BINARY FILE HEADS FROM KSTP 1 AND KPER 2

 SFR-1 SETTING BUDGET TERMS FOR KSTP 2384 AND KPER 2 TO BUDGET FILE TERMS FROM KSTP 1 AND KPER 2

end timestep


start timestep kper="2" kstp="2385" mode="normal"


 FMI SETTING BUDGET TERMS FOR KSTP 2385 AND KPER 2 TO BUDGET FILE TERMS FROM KSTP 1 AND KPER 2

 FMI SETTING HEAD FOR KSTP 2385 AND KPER 2 TO BINARY FILE HEADS FROM KSTP 1 AND KPER 2

 SFR-1 SETTING BUDGET TERMS FOR KSTP 2385 AND KPER 2 TO BUDGET FILE TERMS FROM KSTP 1 AND KPER 2

end timestep


start timestep kper="2" kstp="2386" mode="normal"


 FMI SETTING BUDGET TERMS FOR KSTP 2386 AND KPER 2 TO BUDGET FILE TERMS FROM KSTP 1 AND KPER 2

 FMI SETTING HEAD FOR KSTP 2386 AND KPER 2 TO BINARY FILE HEADS FROM KSTP 1 AND KPER 2

 SFR-1 SETTING BUDGET TERMS FOR KSTP 2386 AND KPER 2 TO BUDGET FILE TERMS FROM KSTP 1 AND KPER 2

end timestep


start timestep kper="2" kstp="2387" mode="normal"


 FMI SETTING BUDGET TERMS FOR KSTP 2387 AND KPER 2 TO BUDGET FILE TERMS FROM KSTP 1 AND KPER 2

 FMI SETTING HEAD FOR KSTP 2387 AND KPER 2 TO BINARY FILE HEADS FROM KSTP 1 AND KPER 2

 SFR-1 SETTING BUDGET TERMS FOR KSTP 2387 AND KPER 2 TO BUDGET FILE TERMS FROM KSTP 1 AND KPER 2

end timestep


start timestep kper="2" kstp="2388" mode="normal"


 FMI SETTING BUDGET TERMS FOR KSTP 2388 AND KPER 2 TO BUDGET FILE TERMS FROM KSTP 1 AND KPER 2

 FMI SETTING HEAD FOR KSTP 2388 AND KPER 2 TO BINARY FILE HEADS FROM KSTP 1 AND KPER 2

 SFR-1 SETTING BUDGET TERMS FOR KSTP 2388 AND KPER 2 TO BUDGET FILE TERMS FROM KSTP 1 AND KPER 2

end timestep


start timestep kper="2" kstp="2389" mode="normal"


 FMI SETTING BUDGET TERMS FOR KSTP 2389 AND KPER 2 TO BUDGET FILE TERMS FROM KSTP 1 AND KPER 2

 FMI SETTING HEAD FOR KSTP 2389 AND KPER 2 TO BINARY FILE HEADS FROM KSTP 1 AND KPER 2

 SFR-1 SETTING BUDGET TERMS FOR KSTP 2389 AND KPER 2 TO BUDGET FILE TERMS FROM KSTP 1 AND KPER 2

end timestep


start timestep kper="2" kstp="2390" mode="normal"


 FMI SETTING BUDGET TERMS FOR KSTP 2390 AND KPER 2 TO BUDGET FILE TERMS FROM KSTP 1 AND KPER 2

 FMI SETTING HEAD FOR KSTP 2390 AND KPER 2 TO BINARY FILE HEADS FROM KSTP 1 AND KPER 2

 SFR-1 SETTING BUDGET TERMS FOR KSTP 2390 AND KPER 2 TO BUDGET FILE TERMS FROM KSTP 1 AND KPER 2

 CONCENTRATION WILL BE SAVED ON UNIT 1024 AT END OF TIME STEP 2390, STRESS PERIOD    2

end timestep


start timestep kper="2" kstp="2391" mode="normal"


 FMI SETTING BUDGET TERMS FOR KSTP 2391 AND KPER 2 TO BUDGET FILE TERMS FROM KSTP 1 AND KPER 2

 FMI SETTING HEAD FOR KSTP 2391 AND KPER 2 TO BINARY FILE HEADS FROM KSTP 1 AND KPER 2

 SFR-1 SETTING BUDGET TERMS FOR KSTP 2391 AND KPER 2 TO BUDGET FILE TERMS FROM KSTP 1 AND KPER 2

end timestep


start timestep kper="2" kstp="2392" mode="normal"


 FMI SETTING BUDGET TERMS FOR KSTP 2392 AND KPER 2 TO BUDGET FILE TERMS FROM KSTP 1 AND KPER 2

 FMI SETTING HEAD FOR KSTP 2392 AND KPER 2 TO BINARY FILE HEADS FROM KSTP 1 AND KPER 2

 SFR-1 SETTING BUDGET TERMS FOR KSTP 2392 AND KPER 2 TO BUDGET FILE TERMS FROM KSTP 1 AND KPER 2

end timestep


start timestep kper="2" kstp="2393" mode="normal"


 FMI SETTING BUDGET TERMS FOR KSTP 2393 AND KPER 2 TO BUDGET FILE TERMS FROM KSTP 1 AND KPER 2

 FMI SETTING HEAD FOR KSTP 2393 AND KPER 2 TO BINARY FILE HEADS FROM KSTP 1 AND KPER 2

 SFR-1 SETTING BUDGET TERMS FOR KSTP 2393 AND KPER 2 TO BUDGET FILE TERMS FROM KSTP 1 AND KPER 2

end timestep


start timestep kper="2" kstp="2394" mode="normal"


 FMI SETTING BUDGET TERMS FOR KSTP 2394 AND KPER 2 TO BUDGET FILE TERMS FROM KSTP 1 AND KPER 2

 FMI SETTING HEAD FOR KSTP 2394 AND KPER 2 TO BINARY FILE HEADS FROM KSTP 1 AND KPER 2

 SFR-1 SETTING BUDGET TERMS FOR KSTP 2394 AND KPER 2 TO BUDGET FILE TERMS FROM KSTP 1 AND KPER 2

end timestep


start timestep kper="2" kstp="2395" mode="normal"


 FMI SETTING BUDGET TERMS FOR KSTP 2395 AND KPER 2 TO BUDGET FILE TERMS FROM KSTP 1 AND KPER 2

 FMI SETTING HEAD FOR KSTP 2395 AND KPER 2 TO BINARY FILE HEADS FROM KSTP 1 AND KPER 2

 SFR-1 SETTING BUDGET TERMS FOR KSTP 2395 AND KPER 2 TO BUDGET FILE TERMS FROM KSTP 1 AND KPER 2

end timestep


start timestep kper="2" kstp="2396" mode="normal"


 FMI SETTING BUDGET TERMS FOR KSTP 2396 AND KPER 2 TO BUDGET FILE TERMS FROM KSTP 1 AND KPER 2

 FMI SETTING HEAD FOR KSTP 2396 AND KPER 2 TO BINARY FILE HEADS FROM KSTP 1 AND KPER 2

 SFR-1 SETTING BUDGET TERMS FOR KSTP 2396 AND KPER 2 TO BUDGET FILE TERMS FROM KSTP 1 AND KPER 2

end timestep


start timestep kper="2" kstp="2397" mode="normal"


 FMI SETTING BUDGET TERMS FOR KSTP 2397 AND KPER 2 TO BUDGET FILE TERMS FROM KSTP 1 AND KPER 2

 FMI SETTING HEAD FOR KSTP 2397 AND KPER 2 TO BINARY FILE HEADS FROM KSTP 1 AND KPER 2

 SFR-1 SETTING BUDGET TERMS FOR KSTP 2397 AND KPER 2 TO BUDGET FILE TERMS FROM KSTP 1 AND KPER 2

end timestep


start timestep kper="2" kstp="2398" mode="normal"


 FMI SETTING BUDGET TERMS FOR KSTP 2398 AND KPER 2 TO BUDGET FILE TERMS FROM KSTP 1 AND KPER 2

 FMI SETTING HEAD FOR KSTP 2398 AND KPER 2 TO BINARY FILE HEADS FROM KSTP 1 AND KPER 2

 SFR-1 SETTING BUDGET TERMS FOR KSTP 2398 AND KPER 2 TO BUDGET FILE TERMS FROM KSTP 1 AND KPER 2

end timestep


start timestep kper="2" kstp="2399" mode="normal"


 FMI SETTING BUDGET TERMS FOR KSTP 2399 AND KPER 2 TO BUDGET FILE TERMS FROM KSTP 1 AND KPER 2

 FMI SETTING HEAD FOR KSTP 2399 AND KPER 2 TO BINARY FILE HEADS FROM KSTP 1 AND KPER 2

 SFR-1 SETTING BUDGET TERMS FOR KSTP 2399 AND KPER 2 TO BUDGET FILE TERMS FROM KSTP 1 AND KPER 2

end timestep


start timestep kper="2" kstp="2400" mode="normal"


 FMI SETTING BUDGET TERMS FOR KSTP 2400 AND KPER 2 TO BUDGET FILE TERMS FROM KSTP 1 AND KPER 2

 FMI SETTING HEAD FOR KSTP 2400 AND KPER 2 TO BINARY FILE HEADS FROM KSTP 1 AND KPER 2

 SFR-1 SETTING BUDGET TERMS FOR KSTP 2400 AND KPER 2 TO BUDGET FILE TERMS FROM KSTP 1 AND KPER 2

 CONCENTRATION WILL BE SAVED ON UNIT 1024 AT END OF TIME STEP 2400, STRESS PERIOD    2

end timestep


start timestep kper="2" kstp="2401" mode="normal"


 FMI SETTING BUDGET TERMS FOR KSTP 2401 AND KPER 2 TO BUDGET FILE TERMS FROM KSTP 1 AND KPER 2

 FMI SETTING HEAD FOR KSTP 2401 AND KPER 2 TO BINARY FILE HEADS FROM KSTP 1 AND KPER 2

 SFR-1 SETTING BUDGET TERMS FOR KSTP 2401 AND KPER 2 TO BUDGET FILE TERMS FROM KSTP 1 AND KPER 2

end timestep


start timestep kper="2" kstp="2402" mode="normal"


 FMI SETTING BUDGET TERMS FOR KSTP 2402 AND KPER 2 TO BUDGET FILE TERMS FROM KSTP 1 AND KPER 2

 FMI SETTING HEAD FOR KSTP 2402 AND KPER 2 TO BINARY FILE HEADS FROM KSTP 1 AND KPER 2

 SFR-1 SETTING BUDGET TERMS FOR KSTP 2402 AND KPER 2 TO BUDGET FILE TERMS FROM KSTP 1 AND KPER 2

end timestep


start timestep kper="2" kstp="2403" mode="normal"


 FMI SETTING BUDGET TERMS FOR KSTP 2403 AND KPER 2 TO BUDGET FILE TERMS FROM KSTP 1 AND KPER 2

 FMI SETTING HEAD FOR KSTP 2403 AND KPER 2 TO BINARY FILE HEADS FROM KSTP 1 AND KPER 2

 SFR-1 SETTING BUDGET TERMS FOR KSTP 2403 AND KPER 2 TO BUDGET FILE TERMS FROM KSTP 1 AND KPER 2

end timestep


start timestep kper="2" kstp="2404" mode="normal"


 FMI SETTING BUDGET TERMS FOR KSTP 2404 AND KPER 2 TO BUDGET FILE TERMS FROM KSTP 1 AND KPER 2

 FMI SETTING HEAD FOR KSTP 2404 AND KPER 2 TO BINARY FILE HEADS FROM KSTP 1 AND KPER 2

 SFR-1 SETTING BUDGET TERMS FOR KSTP 2404 AND KPER 2 TO BUDGET FILE TERMS FROM KSTP 1 AND KPER 2

end timestep


start timestep kper="2" kstp="2405" mode="normal"


 FMI SETTING BUDGET TERMS FOR KSTP 2405 AND KPER 2 TO BUDGET FILE TERMS FROM KSTP 1 AND KPER 2

 FMI SETTING HEAD FOR KSTP 2405 AND KPER 2 TO BINARY FILE HEADS FROM KSTP 1 AND KPER 2

 SFR-1 SETTING BUDGET TERMS FOR KSTP 2405 AND KPER 2 TO BUDGET FILE TERMS FROM KSTP 1 AND KPER 2

end timestep


start timestep kper="2" kstp="2406" mode="normal"


 FMI SETTING BUDGET TERMS FOR KSTP 2406 AND KPER 2 TO BUDGET FILE TERMS FROM KSTP 1 AND KPER 2

 FMI SETTING HEAD FOR KSTP 2406 AND KPER 2 TO BINARY FILE HEADS FROM KSTP 1 AND KPER 2

 SFR-1 SETTING BUDGET TERMS FOR KSTP 2406 AND KPER 2 TO BUDGET FILE TERMS FROM KSTP 1 AND KPER 2

end timestep


start timestep kper="2" kstp="2407" mode="normal"


 FMI SETTING BUDGET TERMS FOR KSTP 2407 AND KPER 2 TO BUDGET FILE TERMS FROM KSTP 1 AND KPER 2

 FMI SETTING HEAD FOR KSTP 2407 AND KPER 2 TO BINARY FILE HEADS FROM KSTP 1 AND KPER 2

 SFR-1 SETTING BUDGET TERMS FOR KSTP 2407 AND KPER 2 TO BUDGET FILE TERMS FROM KSTP 1 AND KPER 2

end timestep


start timestep kper="2" kstp="2408" mode="normal"


 FMI SETTING BUDGET TERMS FOR KSTP 2408 AND KPER 2 TO BUDGET FILE TERMS FROM KSTP 1 AND KPER 2

 FMI SETTING HEAD FOR KSTP 2408 AND KPER 2 TO BINARY FILE HEADS FROM KSTP 1 AND KPER 2

 SFR-1 SETTING BUDGET TERMS FOR KSTP 2408 AND KPER 2 TO BUDGET FILE TERMS FROM KSTP 1 AND KPER 2

end timestep


start timestep kper="2" kstp="2409" mode="normal"


 FMI SETTING BUDGET TERMS FOR KSTP 2409 AND KPER 2 TO BUDGET FILE TERMS FROM KSTP 1 AND KPER 2

 FMI SETTING HEAD FOR KSTP 2409 AND KPER 2 TO BINARY FILE HEADS FROM KSTP 1 AND KPER 2

 SFR-1 SETTING BUDGET TERMS FOR KSTP 2409 AND KPER 2 TO BUDGET FILE TERMS FROM KSTP 1 AND KPER 2

end timestep


start timestep kper="2" kstp="2410" mode="normal"


 FMI SETTING BUDGET TERMS FOR KSTP 2410 AND KPER 2 TO BUDGET FILE TERMS FROM KSTP 1 AND KPER 2

 FMI SETTING HEAD FOR KSTP 2410 AND KPER 2 TO BINARY FILE HEADS FROM KSTP 1 AND KPER 2

 SFR-1 SETTING BUDGET TERMS FOR KSTP 2410 AND KPER 2 TO BUDGET FILE TERMS FROM KSTP 1 AND KPER 2

 CONCENTRATION WILL BE SAVED ON UNIT 1024 AT END OF TIME STEP 2410, STRESS PERIOD    2

end timestep


start timestep kper="2" kstp="2411" mode="normal"


 FMI SETTING BUDGET TERMS FOR KSTP 2411 AND KPER 2 TO BUDGET FILE TERMS FROM KSTP 1 AND KPER 2

 FMI SETTING HEAD FOR KSTP 2411 AND KPER 2 TO BINARY FILE HEADS FROM KSTP 1 AND KPER 2

 SFR-1 SETTING BUDGET TERMS FOR KSTP 2411 AND KPER 2 TO BUDGET FILE TERMS FROM KSTP 1 AND KPER 2

end timestep


start timestep kper="2" kstp="2412" mode="normal"


 FMI SETTING BUDGET TERMS FOR KSTP 2412 AND KPER 2 TO BUDGET FILE TERMS FROM KSTP 1 AND KPER 2

 FMI SETTING HEAD FOR KSTP 2412 AND KPER 2 TO BINARY FILE HEADS FROM KSTP 1 AND KPER 2

 SFR-1 SETTING BUDGET TERMS FOR KSTP 2412 AND KPER 2 TO BUDGET FILE TERMS FROM KSTP 1 AND KPER 2

end timestep


start timestep kper="2" kstp="2413" mode="normal"


 FMI SETTING BUDGET TERMS FOR KSTP 2413 AND KPER 2 TO BUDGET FILE TERMS FROM KSTP 1 AND KPER 2

 FMI SETTING HEAD FOR KSTP 2413 AND KPER 2 TO BINARY FILE HEADS FROM KSTP 1 AND KPER 2

 SFR-1 SETTING BUDGET TERMS FOR KSTP 2413 AND KPER 2 TO BUDGET FILE TERMS FROM KSTP 1 AND KPER 2

end timestep


start timestep kper="2" kstp="2414" mode="normal"


 FMI SETTING BUDGET TERMS FOR KSTP 2414 AND KPER 2 TO BUDGET FILE TERMS FROM KSTP 1 AND KPER 2

 FMI SETTING HEAD FOR KSTP 2414 AND KPER 2 TO BINARY FILE HEADS FROM KSTP 1 AND KPER 2

 SFR-1 SETTING BUDGET TERMS FOR KSTP 2414 AND KPER 2 TO BUDGET FILE TERMS FROM KSTP 1 AND KPER 2

end timestep


start timestep kper="2" kstp="2415" mode="normal"


 FMI SETTING BUDGET TERMS FOR KSTP 2415 AND KPER 2 TO BUDGET FILE TERMS FROM KSTP 1 AND KPER 2

 FMI SETTING HEAD FOR KSTP 2415 AND KPER 2 TO BINARY FILE HEADS FROM KSTP 1 AND KPER 2

 SFR-1 SETTING BUDGET TERMS FOR KSTP 2415 AND KPER 2 TO BUDGET FILE TERMS FROM KSTP 1 AND KPER 2

end timestep


start timestep kper="2" kstp="2416" mode="normal"


 FMI SETTING BUDGET TERMS FOR KSTP 2416 AND KPER 2 TO BUDGET FILE TERMS FROM KSTP 1 AND KPER 2

 FMI SETTING HEAD FOR KSTP 2416 AND KPER 2 TO BINARY FILE HEADS FROM KSTP 1 AND KPER 2

 SFR-1 SETTING BUDGET TERMS FOR KSTP 2416 AND KPER 2 TO BUDGET FILE TERMS FROM KSTP 1 AND KPER 2

end timestep


start timestep kper="2" kstp="2417" mode="normal"


 FMI SETTING BUDGET TERMS FOR KSTP 2417 AND KPER 2 TO BUDGET FILE TERMS FROM KSTP 1 AND KPER 2

 FMI SETTING HEAD FOR KSTP 2417 AND KPER 2 TO BINARY FILE HEADS FROM KSTP 1 AND KPER 2

 SFR-1 SETTING BUDGET TERMS FOR KSTP 2417 AND KPER 2 TO BUDGET FILE TERMS FROM KSTP 1 AND KPER 2

end timestep


start timestep kper="2" kstp="2418" mode="normal"


 FMI SETTING BUDGET TERMS FOR KSTP 2418 AND KPER 2 TO BUDGET FILE TERMS FROM KSTP 1 AND KPER 2

 FMI SETTING HEAD FOR KSTP 2418 AND KPER 2 TO BINARY FILE HEADS FROM KSTP 1 AND KPER 2

 SFR-1 SETTING BUDGET TERMS FOR KSTP 2418 AND KPER 2 TO BUDGET FILE TERMS FROM KSTP 1 AND KPER 2

end timestep


start timestep kper="2" kstp="2419" mode="normal"


 FMI SETTING BUDGET TERMS FOR KSTP 2419 AND KPER 2 TO BUDGET FILE TERMS FROM KSTP 1 AND KPER 2

 FMI SETTING HEAD FOR KSTP 2419 AND KPER 2 TO BINARY FILE HEADS FROM KSTP 1 AND KPER 2

 SFR-1 SETTING BUDGET TERMS FOR KSTP 2419 AND KPER 2 TO BUDGET FILE TERMS FROM KSTP 1 AND KPER 2

end timestep


start timestep kper="2" kstp="2420" mode="normal"


 FMI SETTING BUDGET TERMS FOR KSTP 2420 AND KPER 2 TO BUDGET FILE TERMS FROM KSTP 1 AND KPER 2

 FMI SETTING HEAD FOR KSTP 2420 AND KPER 2 TO BINARY FILE HEADS FROM KSTP 1 AND KPER 2

 SFR-1 SETTING BUDGET TERMS FOR KSTP 2420 AND KPER 2 TO BUDGET FILE TERMS FROM KSTP 1 AND KPER 2

 CONCENTRATION WILL BE SAVED ON UNIT 1024 AT END OF TIME STEP 2420, STRESS PERIOD    2

end timestep


start timestep kper="2" kstp="2421" mode="normal"


 FMI SETTING BUDGET TERMS FOR KSTP 2421 AND KPER 2 TO BUDGET FILE TERMS FROM KSTP 1 AND KPER 2

 FMI SETTING HEAD FOR KSTP 2421 AND KPER 2 TO BINARY FILE HEADS FROM KSTP 1 AND KPER 2

 SFR-1 SETTING BUDGET TERMS FOR KSTP 2421 AND KPER 2 TO BUDGET FILE TERMS FROM KSTP 1 AND KPER 2

end timestep


start timestep kper="2" kstp="2422" mode="normal"


 FMI SETTING BUDGET TERMS FOR KSTP 2422 AND KPER 2 TO BUDGET FILE TERMS FROM KSTP 1 AND KPER 2

 FMI SETTING HEAD FOR KSTP 2422 AND KPER 2 TO BINARY FILE HEADS FROM KSTP 1 AND KPER 2

 SFR-1 SETTING BUDGET TERMS FOR KSTP 2422 AND KPER 2 TO BUDGET FILE TERMS FROM KSTP 1 AND KPER 2

end timestep


start timestep kper="2" kstp="2423" mode="normal"


 FMI SETTING BUDGET TERMS FOR KSTP 2423 AND KPER 2 TO BUDGET FILE TERMS FROM KSTP 1 AND KPER 2

 FMI SETTING HEAD FOR KSTP 2423 AND KPER 2 TO BINARY FILE HEADS FROM KSTP 1 AND KPER 2

 SFR-1 SETTING BUDGET TERMS FOR KSTP 2423 AND KPER 2 TO BUDGET FILE TERMS FROM KSTP 1 AND KPER 2

end timestep


start timestep kper="2" kstp="2424" mode="normal"


 FMI SETTING BUDGET TERMS FOR KSTP 2424 AND KPER 2 TO BUDGET FILE TERMS FROM KSTP 1 AND KPER 2

 FMI SETTING HEAD FOR KSTP 2424 AND KPER 2 TO BINARY FILE HEADS FROM KSTP 1 AND KPER 2

 SFR-1 SETTING BUDGET TERMS FOR KSTP 2424 AND KPER 2 TO BUDGET FILE TERMS FROM KSTP 1 AND KPER 2

end timestep


start timestep kper="2" kstp="2425" mode="normal"


 FMI SETTING BUDGET TERMS FOR KSTP 2425 AND KPER 2 TO BUDGET FILE TERMS FROM KSTP 1 AND KPER 2

 FMI SETTING HEAD FOR KSTP 2425 AND KPER 2 TO BINARY FILE HEADS FROM KSTP 1 AND KPER 2

 SFR-1 SETTING BUDGET TERMS FOR KSTP 2425 AND KPER 2 TO BUDGET FILE TERMS FROM KSTP 1 AND KPER 2

end timestep


start timestep kper="2" kstp="2426" mode="normal"


 FMI SETTING BUDGET TERMS FOR KSTP 2426 AND KPER 2 TO BUDGET FILE TERMS FROM KSTP 1 AND KPER 2

 FMI SETTING HEAD FOR KSTP 2426 AND KPER 2 TO BINARY FILE HEADS FROM KSTP 1 AND KPER 2

 SFR-1 SETTING BUDGET TERMS FOR KSTP 2426 AND KPER 2 TO BUDGET FILE TERMS FROM KSTP 1 AND KPER 2

end timestep


start timestep kper="2" kstp="2427" mode="normal"


 FMI SETTING BUDGET TERMS FOR KSTP 2427 AND KPER 2 TO BUDGET FILE TERMS FROM KSTP 1 AND KPER 2

 FMI SETTING HEAD FOR KSTP 2427 AND KPER 2 TO BINARY FILE HEADS FROM KSTP 1 AND KPER 2

 SFR-1 SETTING BUDGET TERMS FOR KSTP 2427 AND KPER 2 TO BUDGET FILE TERMS FROM KSTP 1 AND KPER 2

end timestep


start timestep kper="2" kstp="2428" mode="normal"


 FMI SETTING BUDGET TERMS FOR KSTP 2428 AND KPER 2 TO BUDGET FILE TERMS FROM KSTP 1 AND KPER 2

 FMI SETTING HEAD FOR KSTP 2428 AND KPER 2 TO BINARY FILE HEADS FROM KSTP 1 AND KPER 2

 SFR-1 SETTING BUDGET TERMS FOR KSTP 2428 AND KPER 2 TO BUDGET FILE TERMS FROM KSTP 1 AND KPER 2

end timestep


start timestep kper="2" kstp="2429" mode="normal"


 FMI SETTING BUDGET TERMS FOR KSTP 2429 AND KPER 2 TO BUDGET FILE TERMS FROM KSTP 1 AND KPER 2

 FMI SETTING HEAD FOR KSTP 2429 AND KPER 2 TO BINARY FILE HEADS FROM KSTP 1 AND KPER 2

 SFR-1 SETTING BUDGET TERMS FOR KSTP 2429 AND KPER 2 TO BUDGET FILE TERMS FROM KSTP 1 AND KPER 2

end timestep


start timestep kper="2" kstp="2430" mode="normal"


 FMI SETTING BUDGET TERMS FOR KSTP 2430 AND KPER 2 TO BUDGET FILE TERMS FROM KSTP 1 AND KPER 2

 FMI SETTING HEAD FOR KSTP 2430 AND KPER 2 TO BINARY FILE HEADS FROM KSTP 1 AND KPER 2

 SFR-1 SETTING BUDGET TERMS FOR KSTP 2430 AND KPER 2 TO BUDGET FILE TERMS FROM KSTP 1 AND KPER 2

 CONCENTRATION WILL BE SAVED ON UNIT 1024 AT END OF TIME STEP 2430, STRESS PERIOD    2

end timestep


start timestep kper="2" kstp="2431" mode="normal"


 FMI SETTING BUDGET TERMS FOR KSTP 2431 AND KPER 2 TO BUDGET FILE TERMS FROM KSTP 1 AND KPER 2

 FMI SETTING HEAD FOR KSTP 2431 AND KPER 2 TO BINARY FILE HEADS FROM KSTP 1 AND KPER 2

 SFR-1 SETTING BUDGET TERMS FOR KSTP 2431 AND KPER 2 TO BUDGET FILE TERMS FROM KSTP 1 AND KPER 2

end timestep


start timestep kper="2" kstp="2432" mode="normal"


 FMI SETTING BUDGET TERMS FOR KSTP 2432 AND KPER 2 TO BUDGET FILE TERMS FROM KSTP 1 AND KPER 2

 FMI SETTING HEAD FOR KSTP 2432 AND KPER 2 TO BINARY FILE HEADS FROM KSTP 1 AND KPER 2

 SFR-1 SETTING BUDGET TERMS FOR KSTP 2432 AND KPER 2 TO BUDGET FILE TERMS FROM KSTP 1 AND KPER 2

end timestep


start timestep kper="2" kstp="2433" mode="normal"


 FMI SETTING BUDGET TERMS FOR KSTP 2433 AND KPER 2 TO BUDGET FILE TERMS FROM KSTP 1 AND KPER 2

 FMI SETTING HEAD FOR KSTP 2433 AND KPER 2 TO BINARY FILE HEADS FROM KSTP 1 AND KPER 2

 SFR-1 SETTING BUDGET TERMS FOR KSTP 2433 AND KPER 2 TO BUDGET FILE TERMS FROM KSTP 1 AND KPER 2

end timestep


start timestep kper="2" kstp="2434" mode="normal"


 FMI SETTING BUDGET TERMS FOR KSTP 2434 AND KPER 2 TO BUDGET FILE TERMS FROM KSTP 1 AND KPER 2

 FMI SETTING HEAD FOR KSTP 2434 AND KPER 2 TO BINARY FILE HEADS FROM KSTP 1 AND KPER 2

 SFR-1 SETTING BUDGET TERMS FOR KSTP 2434 AND KPER 2 TO BUDGET FILE TERMS FROM KSTP 1 AND KPER 2

end timestep


start timestep kper="2" kstp="2435" mode="normal"


 FMI SETTING BUDGET TERMS FOR KSTP 2435 AND KPER 2 TO BUDGET FILE TERMS FROM KSTP 1 AND KPER 2

 FMI SETTING HEAD FOR KSTP 2435 AND KPER 2 TO BINARY FILE HEADS FROM KSTP 1 AND KPER 2

 SFR-1 SETTING BUDGET TERMS FOR KSTP 2435 AND KPER 2 TO BUDGET FILE TERMS FROM KSTP 1 AND KPER 2

end timestep


start timestep kper="2" kstp="2436" mode="normal"


 FMI SETTING BUDGET TERMS FOR KSTP 2436 AND KPER 2 TO BUDGET FILE TERMS FROM KSTP 1 AND KPER 2

 FMI SETTING HEAD FOR KSTP 2436 AND KPER 2 TO BINARY FILE HEADS FROM KSTP 1 AND KPER 2

 SFR-1 SETTING BUDGET TERMS FOR KSTP 2436 AND KPER 2 TO BUDGET FILE TERMS FROM KSTP 1 AND KPER 2

end timestep


start timestep kper="2" kstp="2437" mode="normal"


 FMI SETTING BUDGET TERMS FOR KSTP 2437 AND KPER 2 TO BUDGET FILE TERMS FROM KSTP 1 AND KPER 2

 FMI SETTING HEAD FOR KSTP 2437 AND KPER 2 TO BINARY FILE HEADS FROM KSTP 1 AND KPER 2

 SFR-1 SETTING BUDGET TERMS FOR KSTP 2437 AND KPER 2 TO BUDGET FILE TERMS FROM KSTP 1 AND KPER 2

end timestep


start timestep kper="2" kstp="2438" mode="normal"


 FMI SETTING BUDGET TERMS FOR KSTP 2438 AND KPER 2 TO BUDGET FILE TERMS FROM KSTP 1 AND KPER 2

 FMI SETTING HEAD FOR KSTP 2438 AND KPER 2 TO BINARY FILE HEADS FROM KSTP 1 AND KPER 2

 SFR-1 SETTING BUDGET TERMS FOR KSTP 2438 AND KPER 2 TO BUDGET FILE TERMS FROM KSTP 1 AND KPER 2

end timestep


start timestep kper="2" kstp="2439" mode="normal"


 FMI SETTING BUDGET TERMS FOR KSTP 2439 AND KPER 2 TO BUDGET FILE TERMS FROM KSTP 1 AND KPER 2

 FMI SETTING HEAD FOR KSTP 2439 AND KPER 2 TO BINARY FILE HEADS FROM KSTP 1 AND KPER 2

 SFR-1 SETTING BUDGET TERMS FOR KSTP 2439 AND KPER 2 TO BUDGET FILE TERMS FROM KSTP 1 AND KPER 2

end timestep


start timestep kper="2" kstp="2440" mode="normal"


 FMI SETTING BUDGET TERMS FOR KSTP 2440 AND KPER 2 TO BUDGET FILE TERMS FROM KSTP 1 AND KPER 2

 FMI SETTING HEAD FOR KSTP 2440 AND KPER 2 TO BINARY FILE HEADS FROM KSTP 1 AND KPER 2

 SFR-1 SETTING BUDGET TERMS FOR KSTP 2440 AND KPER 2 TO BUDGET FILE TERMS FROM KSTP 1 AND KPER 2

 CONCENTRATION WILL BE SAVED ON UNIT 1024 AT END OF TIME STEP 2440, STRESS PERIOD    2

end timestep


start timestep kper="2" kstp="2441" mode="normal"


 FMI SETTING BUDGET TERMS FOR KSTP 2441 AND KPER 2 TO BUDGET FILE TERMS FROM KSTP 1 AND KPER 2

 FMI SETTING HEAD FOR KSTP 2441 AND KPER 2 TO BINARY FILE HEADS FROM KSTP 1 AND KPER 2

 SFR-1 SETTING BUDGET TERMS FOR KSTP 2441 AND KPER 2 TO BUDGET FILE TERMS FROM KSTP 1 AND KPER 2

end timestep


start timestep kper="2" kstp="2442" mode="normal"


 FMI SETTING BUDGET TERMS FOR KSTP 2442 AND KPER 2 TO BUDGET FILE TERMS FROM KSTP 1 AND KPER 2

 FMI SETTING HEAD FOR KSTP 2442 AND KPER 2 TO BINARY FILE HEADS FROM KSTP 1 AND KPER 2

 SFR-1 SETTING BUDGET TERMS FOR KSTP 2442 AND KPER 2 TO BUDGET FILE TERMS FROM KSTP 1 AND KPER 2

end timestep


start timestep kper="2" kstp="2443" mode="normal"


 FMI SETTING BUDGET TERMS FOR KSTP 2443 AND KPER 2 TO BUDGET FILE TERMS FROM KSTP 1 AND KPER 2

 FMI SETTING HEAD FOR KSTP 2443 AND KPER 2 TO BINARY FILE HEADS FROM KSTP 1 AND KPER 2

 SFR-1 SETTING BUDGET TERMS FOR KSTP 2443 AND KPER 2 TO BUDGET FILE TERMS FROM KSTP 1 AND KPER 2

end timestep


start timestep kper="2" kstp="2444" mode="normal"


 FMI SETTING BUDGET TERMS FOR KSTP 2444 AND KPER 2 TO BUDGET FILE TERMS FROM KSTP 1 AND KPER 2

 FMI SETTING HEAD FOR KSTP 2444 AND KPER 2 TO BINARY FILE HEADS FROM KSTP 1 AND KPER 2

 SFR-1 SETTING BUDGET TERMS FOR KSTP 2444 AND KPER 2 TO BUDGET FILE TERMS FROM KSTP 1 AND KPER 2

end timestep


start timestep kper="2" kstp="2445" mode="normal"


 FMI SETTING BUDGET TERMS FOR KSTP 2445 AND KPER 2 TO BUDGET FILE TERMS FROM KSTP 1 AND KPER 2

 FMI SETTING HEAD FOR KSTP 2445 AND KPER 2 TO BINARY FILE HEADS FROM KSTP 1 AND KPER 2

 SFR-1 SETTING BUDGET TERMS FOR KSTP 2445 AND KPER 2 TO BUDGET FILE TERMS FROM KSTP 1 AND KPER 2

end timestep


start timestep kper="2" kstp="2446" mode="normal"


 FMI SETTING BUDGET TERMS FOR KSTP 2446 AND KPER 2 TO BUDGET FILE TERMS FROM KSTP 1 AND KPER 2

 FMI SETTING HEAD FOR KSTP 2446 AND KPER 2 TO BINARY FILE HEADS FROM KSTP 1 AND KPER 2

 SFR-1 SETTING BUDGET TERMS FOR KSTP 2446 AND KPER 2 TO BUDGET FILE TERMS FROM KSTP 1 AND KPER 2

end timestep


start timestep kper="2" kstp="2447" mode="normal"


 FMI SETTING BUDGET TERMS FOR KSTP 2447 AND KPER 2 TO BUDGET FILE TERMS FROM KSTP 1 AND KPER 2

 FMI SETTING HEAD FOR KSTP 2447 AND KPER 2 TO BINARY FILE HEADS FROM KSTP 1 AND KPER 2

 SFR-1 SETTING BUDGET TERMS FOR KSTP 2447 AND KPER 2 TO BUDGET FILE TERMS FROM KSTP 1 AND KPER 2

end timestep


start timestep kper="2" kstp="2448" mode="normal"


 FMI SETTING BUDGET TERMS FOR KSTP 2448 AND KPER 2 TO BUDGET FILE TERMS FROM KSTP 1 AND KPER 2

 FMI SETTING HEAD FOR KSTP 2448 AND KPER 2 TO BINARY FILE HEADS FROM KSTP 1 AND KPER 2

 SFR-1 SETTING BUDGET TERMS FOR KSTP 2448 AND KPER 2 TO BUDGET FILE TERMS FROM KSTP 1 AND KPER 2

end timestep


start timestep kper="2" kstp="2449" mode="normal"


 FMI SETTING BUDGET TERMS FOR KSTP 2449 AND KPER 2 TO BUDGET FILE TERMS FROM KSTP 1 AND KPER 2

 FMI SETTING HEAD FOR KSTP 2449 AND KPER 2 TO BINARY FILE HEADS FROM KSTP 1 AND KPER 2

 SFR-1 SETTING BUDGET TERMS FOR KSTP 2449 AND KPER 2 TO BUDGET FILE TERMS FROM KSTP 1 AND KPER 2

end timestep


start timestep kper="2" kstp="2450" mode="normal"


 FMI SETTING BUDGET TERMS FOR KSTP 2450 AND KPER 2 TO BUDGET FILE TERMS FROM KSTP 1 AND KPER 2

 FMI SETTING HEAD FOR KSTP 2450 AND KPER 2 TO BINARY FILE HEADS FROM KSTP 1 AND KPER 2

 SFR-1 SETTING BUDGET TERMS FOR KSTP 2450 AND KPER 2 TO BUDGET FILE TERMS FROM KSTP 1 AND KPER 2

 CONCENTRATION WILL BE SAVED ON UNIT 1024 AT END OF TIME STEP 2450, STRESS PERIOD    2

end timestep


start timestep kper="2" kstp="2451" mode="normal"


 FMI SETTING BUDGET TERMS FOR KSTP 2451 AND KPER 2 TO BUDGET FILE TERMS FROM KSTP 1 AND KPER 2

 FMI SETTING HEAD FOR KSTP 2451 AND KPER 2 TO BINARY FILE HEADS FROM KSTP 1 AND KPER 2

 SFR-1 SETTING BUDGET TERMS FOR KSTP 2451 AND KPER 2 TO BUDGET FILE TERMS FROM KSTP 1 AND KPER 2

end timestep


start timestep kper="2" kstp="2452" mode="normal"


 FMI SETTING BUDGET TERMS FOR KSTP 2452 AND KPER 2 TO BUDGET FILE TERMS FROM KSTP 1 AND KPER 2

 FMI SETTING HEAD FOR KSTP 2452 AND KPER 2 TO BINARY FILE HEADS FROM KSTP 1 AND KPER 2

 SFR-1 SETTING BUDGET TERMS FOR KSTP 2452 AND KPER 2 TO BUDGET FILE TERMS FROM KSTP 1 AND KPER 2

end timestep


start timestep kper="2" kstp="2453" mode="normal"


 FMI SETTING BUDGET TERMS FOR KSTP 2453 AND KPER 2 TO BUDGET FILE TERMS FROM KSTP 1 AND KPER 2

 FMI SETTING HEAD FOR KSTP 2453 AND KPER 2 TO BINARY FILE HEADS FROM KSTP 1 AND KPER 2

 SFR-1 SETTING BUDGET TERMS FOR KSTP 2453 AND KPER 2 TO BUDGET FILE TERMS FROM KSTP 1 AND KPER 2

end timestep


start timestep kper="2" kstp="2454" mode="normal"


 FMI SETTING BUDGET TERMS FOR KSTP 2454 AND KPER 2 TO BUDGET FILE TERMS FROM KSTP 1 AND KPER 2

 FMI SETTING HEAD FOR KSTP 2454 AND KPER 2 TO BINARY FILE HEADS FROM KSTP 1 AND KPER 2

 SFR-1 SETTING BUDGET TERMS FOR KSTP 2454 AND KPER 2 TO BUDGET FILE TERMS FROM KSTP 1 AND KPER 2

end timestep


start timestep kper="2" kstp="2455" mode="normal"


 FMI SETTING BUDGET TERMS FOR KSTP 2455 AND KPER 2 TO BUDGET FILE TERMS FROM KSTP 1 AND KPER 2

 FMI SETTING HEAD FOR KSTP 2455 AND KPER 2 TO BINARY FILE HEADS FROM KSTP 1 AND KPER 2

 SFR-1 SETTING BUDGET TERMS FOR KSTP 2455 AND KPER 2 TO BUDGET FILE TERMS FROM KSTP 1 AND KPER 2

end timestep


start timestep kper="2" kstp="2456" mode="normal"


 FMI SETTING BUDGET TERMS FOR KSTP 2456 AND KPER 2 TO BUDGET FILE TERMS FROM KSTP 1 AND KPER 2

 FMI SETTING HEAD FOR KSTP 2456 AND KPER 2 TO BINARY FILE HEADS FROM KSTP 1 AND KPER 2

 SFR-1 SETTING BUDGET TERMS FOR KSTP 2456 AND KPER 2 TO BUDGET FILE TERMS FROM KSTP 1 AND KPER 2

end timestep


start timestep kper="2" kstp="2457" mode="normal"


 FMI SETTING BUDGET TERMS FOR KSTP 2457 AND KPER 2 TO BUDGET FILE TERMS FROM KSTP 1 AND KPER 2

 FMI SETTING HEAD FOR KSTP 2457 AND KPER 2 TO BINARY FILE HEADS FROM KSTP 1 AND KPER 2

 SFR-1 SETTING BUDGET TERMS FOR KSTP 2457 AND KPER 2 TO BUDGET FILE TERMS FROM KSTP 1 AND KPER 2

end timestep


start timestep kper="2" kstp="2458" mode="normal"


 FMI SETTING BUDGET TERMS FOR KSTP 2458 AND KPER 2 TO BUDGET FILE TERMS FROM KSTP 1 AND KPER 2

 FMI SETTING HEAD FOR KSTP 2458 AND KPER 2 TO BINARY FILE HEADS FROM KSTP 1 AND KPER 2

 SFR-1 SETTING BUDGET TERMS FOR KSTP 2458 AND KPER 2 TO BUDGET FILE TERMS FROM KSTP 1 AND KPER 2

end timestep


start timestep kper="2" kstp="2459" mode="normal"


 FMI SETTING BUDGET TERMS FOR KSTP 2459 AND KPER 2 TO BUDGET FILE TERMS FROM KSTP 1 AND KPER 2

 FMI SETTING HEAD FOR KSTP 2459 AND KPER 2 TO BINARY FILE HEADS FROM KSTP 1 AND KPER 2

 SFR-1 SETTING BUDGET TERMS FOR KSTP 2459 AND KPER 2 TO BUDGET FILE TERMS FROM KSTP 1 AND KPER 2

end timestep


start timestep kper="2" kstp="2460" mode="normal"


 FMI SETTING BUDGET TERMS FOR KSTP 2460 AND KPER 2 TO BUDGET FILE TERMS FROM KSTP 1 AND KPER 2

 FMI SETTING HEAD FOR KSTP 2460 AND KPER 2 TO BINARY FILE HEADS FROM KSTP 1 AND KPER 2

 SFR-1 SETTING BUDGET TERMS FOR KSTP 2460 AND KPER 2 TO BUDGET FILE TERMS FROM KSTP 1 AND KPER 2

 CONCENTRATION WILL BE SAVED ON UNIT 1024 AT END OF TIME STEP 2460, STRESS PERIOD    2

end timestep


start timestep kper="2" kstp="2461" mode="normal"


 FMI SETTING BUDGET TERMS FOR KSTP 2461 AND KPER 2 TO BUDGET FILE TERMS FROM KSTP 1 AND KPER 2

 FMI SETTING HEAD FOR KSTP 2461 AND KPER 2 TO BINARY FILE HEADS FROM KSTP 1 AND KPER 2

 SFR-1 SETTING BUDGET TERMS FOR KSTP 2461 AND KPER 2 TO BUDGET FILE TERMS FROM KSTP 1 AND KPER 2

end timestep


start timestep kper="2" kstp="2462" mode="normal"


 FMI SETTING BUDGET TERMS FOR KSTP 2462 AND KPER 2 TO BUDGET FILE TERMS FROM KSTP 1 AND KPER 2

 FMI SETTING HEAD FOR KSTP 2462 AND KPER 2 TO BINARY FILE HEADS FROM KSTP 1 AND KPER 2

 SFR-1 SETTING BUDGET TERMS FOR KSTP 2462 AND KPER 2 TO BUDGET FILE TERMS FROM KSTP 1 AND KPER 2

end timestep


start timestep kper="2" kstp="2463" mode="normal"


 FMI SETTING BUDGET TERMS FOR KSTP 2463 AND KPER 2 TO BUDGET FILE TERMS FROM KSTP 1 AND KPER 2

 FMI SETTING HEAD FOR KSTP 2463 AND KPER 2 TO BINARY FILE HEADS FROM KSTP 1 AND KPER 2

 SFR-1 SETTING BUDGET TERMS FOR KSTP 2463 AND KPER 2 TO BUDGET FILE TERMS FROM KSTP 1 AND KPER 2

end timestep


start timestep kper="2" kstp="2464" mode="normal"


 FMI SETTING BUDGET TERMS FOR KSTP 2464 AND KPER 2 TO BUDGET FILE TERMS FROM KSTP 1 AND KPER 2

 FMI SETTING HEAD FOR KSTP 2464 AND KPER 2 TO BINARY FILE HEADS FROM KSTP 1 AND KPER 2

 SFR-1 SETTING BUDGET TERMS FOR KSTP 2464 AND KPER 2 TO BUDGET FILE TERMS FROM KSTP 1 AND KPER 2

end timestep


start timestep kper="2" kstp="2465" mode="normal"


 FMI SETTING BUDGET TERMS FOR KSTP 2465 AND KPER 2 TO BUDGET FILE TERMS FROM KSTP 1 AND KPER 2

 FMI SETTING HEAD FOR KSTP 2465 AND KPER 2 TO BINARY FILE HEADS FROM KSTP 1 AND KPER 2

 SFR-1 SETTING BUDGET TERMS FOR KSTP 2465 AND KPER 2 TO BUDGET FILE TERMS FROM KSTP 1 AND KPER 2

end timestep


start timestep kper="2" kstp="2466" mode="normal"


 FMI SETTING BUDGET TERMS FOR KSTP 2466 AND KPER 2 TO BUDGET FILE TERMS FROM KSTP 1 AND KPER 2

 FMI SETTING HEAD FOR KSTP 2466 AND KPER 2 TO BINARY FILE HEADS FROM KSTP 1 AND KPER 2

 SFR-1 SETTING BUDGET TERMS FOR KSTP 2466 AND KPER 2 TO BUDGET FILE TERMS FROM KSTP 1 AND KPER 2

end timestep


start timestep kper="2" kstp="2467" mode="normal"


 FMI SETTING BUDGET TERMS FOR KSTP 2467 AND KPER 2 TO BUDGET FILE TERMS FROM KSTP 1 AND KPER 2

 FMI SETTING HEAD FOR KSTP 2467 AND KPER 2 TO BINARY FILE HEADS FROM KSTP 1 AND KPER 2

 SFR-1 SETTING BUDGET TERMS FOR KSTP 2467 AND KPER 2 TO BUDGET FILE TERMS FROM KSTP 1 AND KPER 2

end timestep


start timestep kper="2" kstp="2468" mode="normal"


 FMI SETTING BUDGET TERMS FOR KSTP 2468 AND KPER 2 TO BUDGET FILE TERMS FROM KSTP 1 AND KPER 2

 FMI SETTING HEAD FOR KSTP 2468 AND KPER 2 TO BINARY FILE HEADS FROM KSTP 1 AND KPER 2

 SFR-1 SETTING BUDGET TERMS FOR KSTP 2468 AND KPER 2 TO BUDGET FILE TERMS FROM KSTP 1 AND KPER 2

end timestep


start timestep kper="2" kstp="2469" mode="normal"


 FMI SETTING BUDGET TERMS FOR KSTP 2469 AND KPER 2 TO BUDGET FILE TERMS FROM KSTP 1 AND KPER 2

 FMI SETTING HEAD FOR KSTP 2469 AND KPER 2 TO BINARY FILE HEADS FROM KSTP 1 AND KPER 2

 SFR-1 SETTING BUDGET TERMS FOR KSTP 2469 AND KPER 2 TO BUDGET FILE TERMS FROM KSTP 1 AND KPER 2

end timestep


start timestep kper="2" kstp="2470" mode="normal"


 FMI SETTING BUDGET TERMS FOR KSTP 2470 AND KPER 2 TO BUDGET FILE TERMS FROM KSTP 1 AND KPER 2

 FMI SETTING HEAD FOR KSTP 2470 AND KPER 2 TO BINARY FILE HEADS FROM KSTP 1 AND KPER 2

 SFR-1 SETTING BUDGET TERMS FOR KSTP 2470 AND KPER 2 TO BUDGET FILE TERMS FROM KSTP 1 AND KPER 2

 CONCENTRATION WILL BE SAVED ON UNIT 1024 AT END OF TIME STEP 2470, STRESS PERIOD    2

end timestep


start timestep kper="2" kstp="2471" mode="normal"


 FMI SETTING BUDGET TERMS FOR KSTP 2471 AND KPER 2 TO BUDGET FILE TERMS FROM KSTP 1 AND KPER 2

 FMI SETTING HEAD FOR KSTP 2471 AND KPER 2 TO BINARY FILE HEADS FROM KSTP 1 AND KPER 2

 SFR-1 SETTING BUDGET TERMS FOR KSTP 2471 AND KPER 2 TO BUDGET FILE TERMS FROM KSTP 1 AND KPER 2

end timestep


start timestep kper="2" kstp="2472" mode="normal"


 FMI SETTING BUDGET TERMS FOR KSTP 2472 AND KPER 2 TO BUDGET FILE TERMS FROM KSTP 1 AND KPER 2

 FMI SETTING HEAD FOR KSTP 2472 AND KPER 2 TO BINARY FILE HEADS FROM KSTP 1 AND KPER 2

 SFR-1 SETTING BUDGET TERMS FOR KSTP 2472 AND KPER 2 TO BUDGET FILE TERMS FROM KSTP 1 AND KPER 2

end timestep


start timestep kper="2" kstp="2473" mode="normal"


 FMI SETTING BUDGET TERMS FOR KSTP 2473 AND KPER 2 TO BUDGET FILE TERMS FROM KSTP 1 AND KPER 2

 FMI SETTING HEAD FOR KSTP 2473 AND KPER 2 TO BINARY FILE HEADS FROM KSTP 1 AND KPER 2

 SFR-1 SETTING BUDGET TERMS FOR KSTP 2473 AND KPER 2 TO BUDGET FILE TERMS FROM KSTP 1 AND KPER 2

end timestep


start timestep kper="2" kstp="2474" mode="normal"


 FMI SETTING BUDGET TERMS FOR KSTP 2474 AND KPER 2 TO BUDGET FILE TERMS FROM KSTP 1 AND KPER 2

 FMI SETTING HEAD FOR KSTP 2474 AND KPER 2 TO BINARY FILE HEADS FROM KSTP 1 AND KPER 2

 SFR-1 SETTING BUDGET TERMS FOR KSTP 2474 AND KPER 2 TO BUDGET FILE TERMS FROM KSTP 1 AND KPER 2

end timestep


start timestep kper="2" kstp="2475" mode="normal"


 FMI SETTING BUDGET TERMS FOR KSTP 2475 AND KPER 2 TO BUDGET FILE TERMS FROM KSTP 1 AND KPER 2

 FMI SETTING HEAD FOR KSTP 2475 AND KPER 2 TO BINARY FILE HEADS FROM KSTP 1 AND KPER 2

 SFR-1 SETTING BUDGET TERMS FOR KSTP 2475 AND KPER 2 TO BUDGET FILE TERMS FROM KSTP 1 AND KPER 2

end timestep


start timestep kper="2" kstp="2476" mode="normal"


 FMI SETTING BUDGET TERMS FOR KSTP 2476 AND KPER 2 TO BUDGET FILE TERMS FROM KSTP 1 AND KPER 2

 FMI SETTING HEAD FOR KSTP 2476 AND KPER 2 TO BINARY FILE HEADS FROM KSTP 1 AND KPER 2

 SFR-1 SETTING BUDGET TERMS FOR KSTP 2476 AND KPER 2 TO BUDGET FILE TERMS FROM KSTP 1 AND KPER 2

end timestep


start timestep kper="2" kstp="2477" mode="normal"


 FMI SETTING BUDGET TERMS FOR KSTP 2477 AND KPER 2 TO BUDGET FILE TERMS FROM KSTP 1 AND KPER 2

 FMI SETTING HEAD FOR KSTP 2477 AND KPER 2 TO BINARY FILE HEADS FROM KSTP 1 AND KPER 2

 SFR-1 SETTING BUDGET TERMS FOR KSTP 2477 AND KPER 2 TO BUDGET FILE TERMS FROM KSTP 1 AND KPER 2

end timestep


start timestep kper="2" kstp="2478" mode="normal"


 FMI SETTING BUDGET TERMS FOR KSTP 2478 AND KPER 2 TO BUDGET FILE TERMS FROM KSTP 1 AND KPER 2

 FMI SETTING HEAD FOR KSTP 2478 AND KPER 2 TO BINARY FILE HEADS FROM KSTP 1 AND KPER 2

 SFR-1 SETTING BUDGET TERMS FOR KSTP 2478 AND KPER 2 TO BUDGET FILE TERMS FROM KSTP 1 AND KPER 2

end timestep


start timestep kper="2" kstp="2479" mode="normal"


 FMI SETTING BUDGET TERMS FOR KSTP 2479 AND KPER 2 TO BUDGET FILE TERMS FROM KSTP 1 AND KPER 2

 FMI SETTING HEAD FOR KSTP 2479 AND KPER 2 TO BINARY FILE HEADS FROM KSTP 1 AND KPER 2

 SFR-1 SETTING BUDGET TERMS FOR KSTP 2479 AND KPER 2 TO BUDGET FILE TERMS FROM KSTP 1 AND KPER 2

end timestep


start timestep kper="2" kstp="2480" mode="normal"


 FMI SETTING BUDGET TERMS FOR KSTP 2480 AND KPER 2 TO BUDGET FILE TERMS FROM KSTP 1 AND KPER 2

 FMI SETTING HEAD FOR KSTP 2480 AND KPER 2 TO BINARY FILE HEADS FROM KSTP 1 AND KPER 2

 SFR-1 SETTING BUDGET TERMS FOR KSTP 2480 AND KPER 2 TO BUDGET FILE TERMS FROM KSTP 1 AND KPER 2

 CONCENTRATION WILL BE SAVED ON UNIT 1024 AT END OF TIME STEP 2480, STRESS PERIOD    2

end timestep


start timestep kper="2" kstp="2481" mode="normal"


 FMI SETTING BUDGET TERMS FOR KSTP 2481 AND KPER 2 TO BUDGET FILE TERMS FROM KSTP 1 AND KPER 2

 FMI SETTING HEAD FOR KSTP 2481 AND KPER 2 TO BINARY FILE HEADS FROM KSTP 1 AND KPER 2

 SFR-1 SETTING BUDGET TERMS FOR KSTP 2481 AND KPER 2 TO BUDGET FILE TERMS FROM KSTP 1 AND KPER 2

end timestep


start timestep kper="2" kstp="2482" mode="normal"


 FMI SETTING BUDGET TERMS FOR KSTP 2482 AND KPER 2 TO BUDGET FILE TERMS FROM KSTP 1 AND KPER 2

 FMI SETTING HEAD FOR KSTP 2482 AND KPER 2 TO BINARY FILE HEADS FROM KSTP 1 AND KPER 2

 SFR-1 SETTING BUDGET TERMS FOR KSTP 2482 AND KPER 2 TO BUDGET FILE TERMS FROM KSTP 1 AND KPER 2

end timestep


start timestep kper="2" kstp="2483" mode="normal"


 FMI SETTING BUDGET TERMS FOR KSTP 2483 AND KPER 2 TO BUDGET FILE TERMS FROM KSTP 1 AND KPER 2

 FMI SETTING HEAD FOR KSTP 2483 AND KPER 2 TO BINARY FILE HEADS FROM KSTP 1 AND KPER 2

 SFR-1 SETTING BUDGET TERMS FOR KSTP 2483 AND KPER 2 TO BUDGET FILE TERMS FROM KSTP 1 AND KPER 2

end timestep


start timestep kper="2" kstp="2484" mode="normal"


 FMI SETTING BUDGET TERMS FOR KSTP 2484 AND KPER 2 TO BUDGET FILE TERMS FROM KSTP 1 AND KPER 2

 FMI SETTING HEAD FOR KSTP 2484 AND KPER 2 TO BINARY FILE HEADS FROM KSTP 1 AND KPER 2

 SFR-1 SETTING BUDGET TERMS FOR KSTP 2484 AND KPER 2 TO BUDGET FILE TERMS FROM KSTP 1 AND KPER 2

end timestep


start timestep kper="2" kstp="2485" mode="normal"


 FMI SETTING BUDGET TERMS FOR KSTP 2485 AND KPER 2 TO BUDGET FILE TERMS FROM KSTP 1 AND KPER 2

 FMI SETTING HEAD FOR KSTP 2485 AND KPER 2 TO BINARY FILE HEADS FROM KSTP 1 AND KPER 2

 SFR-1 SETTING BUDGET TERMS FOR KSTP 2485 AND KPER 2 TO BUDGET FILE TERMS FROM KSTP 1 AND KPER 2

end timestep


start timestep kper="2" kstp="2486" mode="normal"


 FMI SETTING BUDGET TERMS FOR KSTP 2486 AND KPER 2 TO BUDGET FILE TERMS FROM KSTP 1 AND KPER 2

 FMI SETTING HEAD FOR KSTP 2486 AND KPER 2 TO BINARY FILE HEADS FROM KSTP 1 AND KPER 2

 SFR-1 SETTING BUDGET TERMS FOR KSTP 2486 AND KPER 2 TO BUDGET FILE TERMS FROM KSTP 1 AND KPER 2

end timestep


start timestep kper="2" kstp="2487" mode="normal"


 FMI SETTING BUDGET TERMS FOR KSTP 2487 AND KPER 2 TO BUDGET FILE TERMS FROM KSTP 1 AND KPER 2

 FMI SETTING HEAD FOR KSTP 2487 AND KPER 2 TO BINARY FILE HEADS FROM KSTP 1 AND KPER 2

 SFR-1 SETTING BUDGET TERMS FOR KSTP 2487 AND KPER 2 TO BUDGET FILE TERMS FROM KSTP 1 AND KPER 2

end timestep


start timestep kper="2" kstp="2488" mode="normal"


 FMI SETTING BUDGET TERMS FOR KSTP 2488 AND KPER 2 TO BUDGET FILE TERMS FROM KSTP 1 AND KPER 2

 FMI SETTING HEAD FOR KSTP 2488 AND KPER 2 TO BINARY FILE HEADS FROM KSTP 1 AND KPER 2

 SFR-1 SETTING BUDGET TERMS FOR KSTP 2488 AND KPER 2 TO BUDGET FILE TERMS FROM KSTP 1 AND KPER 2

end timestep


start timestep kper="2" kstp="2489" mode="normal"


 FMI SETTING BUDGET TERMS FOR KSTP 2489 AND KPER 2 TO BUDGET FILE TERMS FROM KSTP 1 AND KPER 2

 FMI SETTING HEAD FOR KSTP 2489 AND KPER 2 TO BINARY FILE HEADS FROM KSTP 1 AND KPER 2

 SFR-1 SETTING BUDGET TERMS FOR KSTP 2489 AND KPER 2 TO BUDGET FILE TERMS FROM KSTP 1 AND KPER 2

end timestep


start timestep kper="2" kstp="2490" mode="normal"


 FMI SETTING BUDGET TERMS FOR KSTP 2490 AND KPER 2 TO BUDGET FILE TERMS FROM KSTP 1 AND KPER 2

 FMI SETTING HEAD FOR KSTP 2490 AND KPER 2 TO BINARY FILE HEADS FROM KSTP 1 AND KPER 2

 SFR-1 SETTING BUDGET TERMS FOR KSTP 2490 AND KPER 2 TO BUDGET FILE TERMS FROM KSTP 1 AND KPER 2

 CONCENTRATION WILL BE SAVED ON UNIT 1024 AT END OF TIME STEP 2490, STRESS PERIOD    2

end timestep


start timestep kper="2" kstp="2491" mode="normal"


 FMI SETTING BUDGET TERMS FOR KSTP 2491 AND KPER 2 TO BUDGET FILE TERMS FROM KSTP 1 AND KPER 2

 FMI SETTING HEAD FOR KSTP 2491 AND KPER 2 TO BINARY FILE HEADS FROM KSTP 1 AND KPER 2

 SFR-1 SETTING BUDGET TERMS FOR KSTP 2491 AND KPER 2 TO BUDGET FILE TERMS FROM KSTP 1 AND KPER 2

end timestep


start timestep kper="2" kstp="2492" mode="normal"


 FMI SETTING BUDGET TERMS FOR KSTP 2492 AND KPER 2 TO BUDGET FILE TERMS FROM KSTP 1 AND KPER 2

 FMI SETTING HEAD FOR KSTP 2492 AND KPER 2 TO BINARY FILE HEADS FROM KSTP 1 AND KPER 2

 SFR-1 SETTING BUDGET TERMS FOR KSTP 2492 AND KPER 2 TO BUDGET FILE TERMS FROM KSTP 1 AND KPER 2

end timestep


start timestep kper="2" kstp="2493" mode="normal"


 FMI SETTING BUDGET TERMS FOR KSTP 2493 AND KPER 2 TO BUDGET FILE TERMS FROM KSTP 1 AND KPER 2

 FMI SETTING HEAD FOR KSTP 2493 AND KPER 2 TO BINARY FILE HEADS FROM KSTP 1 AND KPER 2

 SFR-1 SETTING BUDGET TERMS FOR KSTP 2493 AND KPER 2 TO BUDGET FILE TERMS FROM KSTP 1 AND KPER 2

end timestep


start timestep kper="2" kstp="2494" mode="normal"


 FMI SETTING BUDGET TERMS FOR KSTP 2494 AND KPER 2 TO BUDGET FILE TERMS FROM KSTP 1 AND KPER 2

 FMI SETTING HEAD FOR KSTP 2494 AND KPER 2 TO BINARY FILE HEADS FROM KSTP 1 AND KPER 2

 SFR-1 SETTING BUDGET TERMS FOR KSTP 2494 AND KPER 2 TO BUDGET FILE TERMS FROM KSTP 1 AND KPER 2

end timestep


start timestep kper="2" kstp="2495" mode="normal"


 FMI SETTING BUDGET TERMS FOR KSTP 2495 AND KPER 2 TO BUDGET FILE TERMS FROM KSTP 1 AND KPER 2

 FMI SETTING HEAD FOR KSTP 2495 AND KPER 2 TO BINARY FILE HEADS FROM KSTP 1 AND KPER 2

 SFR-1 SETTING BUDGET TERMS FOR KSTP 2495 AND KPER 2 TO BUDGET FILE TERMS FROM KSTP 1 AND KPER 2

end timestep


start timestep kper="2" kstp="2496" mode="normal"


 FMI SETTING BUDGET TERMS FOR KSTP 2496 AND KPER 2 TO BUDGET FILE TERMS FROM KSTP 1 AND KPER 2

 FMI SETTING HEAD FOR KSTP 2496 AND KPER 2 TO BINARY FILE HEADS FROM KSTP 1 AND KPER 2

 SFR-1 SETTING BUDGET TERMS FOR KSTP 2496 AND KPER 2 TO BUDGET FILE TERMS FROM KSTP 1 AND KPER 2

end timestep


start timestep kper="2" kstp="2497" mode="normal"


 FMI SETTING BUDGET TERMS FOR KSTP 2497 AND KPER 2 TO BUDGET FILE TERMS FROM KSTP 1 AND KPER 2

 FMI SETTING HEAD FOR KSTP 2497 AND KPER 2 TO BINARY FILE HEADS FROM KSTP 1 AND KPER 2

 SFR-1 SETTING BUDGET TERMS FOR KSTP 2497 AND KPER 2 TO BUDGET FILE TERMS FROM KSTP 1 AND KPER 2

end timestep


start timestep kper="2" kstp="2498" mode="normal"


 FMI SETTING BUDGET TERMS FOR KSTP 2498 AND KPER 2 TO BUDGET FILE TERMS FROM KSTP 1 AND KPER 2

 FMI SETTING HEAD FOR KSTP 2498 AND KPER 2 TO BINARY FILE HEADS FROM KSTP 1 AND KPER 2

 SFR-1 SETTING BUDGET TERMS FOR KSTP 2498 AND KPER 2 TO BUDGET FILE TERMS FROM KSTP 1 AND KPER 2

end timestep


start timestep kper="2" kstp="2499" mode="normal"


 FMI SETTING BUDGET TERMS FOR KSTP 2499 AND KPER 2 TO BUDGET FILE TERMS FROM KSTP 1 AND KPER 2

 FMI SETTING HEAD FOR KSTP 2499 AND KPER 2 TO BINARY FILE HEADS FROM KSTP 1 AND KPER 2

 SFR-1 SETTING BUDGET TERMS FOR KSTP 2499 AND KPER 2 TO BUDGET FILE TERMS FROM KSTP 1 AND KPER 2

end timestep


start timestep kper="2" kstp="2500" mode="normal"


 FMI SETTING BUDGET TERMS FOR KSTP 2500 AND KPER 2 TO BUDGET FILE TERMS FROM KSTP 1 AND KPER 2

 FMI SETTING HEAD FOR KSTP 2500 AND KPER 2 TO BINARY FILE HEADS FROM KSTP 1 AND KPER 2

 SFR-1 SETTING BUDGET TERMS FOR KSTP 2500 AND KPER 2 TO BUDGET FILE TERMS FROM KSTP 1 AND KPER 2

 CONCENTRATION WILL BE SAVED ON UNIT 1024 AT END OF TIME STEP 2500, STRESS PERIOD    2

end timestep


start timestep kper="2" kstp="2501" mode="normal"


 FMI SETTING BUDGET TERMS FOR KSTP 2501 AND KPER 2 TO BUDGET FILE TERMS FROM KSTP 1 AND KPER 2

 FMI SETTING HEAD FOR KSTP 2501 AND KPER 2 TO BINARY FILE HEADS FROM KSTP 1 AND KPER 2

 SFR-1 SETTING BUDGET TERMS FOR KSTP 2501 AND KPER 2 TO BUDGET FILE TERMS FROM KSTP 1 AND KPER 2

end timestep


start timestep kper="2" kstp="2502" mode="normal"


 FMI SETTING BUDGET TERMS FOR KSTP 2502 AND KPER 2 TO BUDGET FILE TERMS FROM KSTP 1 AND KPER 2

 FMI SETTING HEAD FOR KSTP 2502 AND KPER 2 TO BINARY FILE HEADS FROM KSTP 1 AND KPER 2

 SFR-1 SETTING BUDGET TERMS FOR KSTP 2502 AND KPER 2 TO BUDGET FILE TERMS FROM KSTP 1 AND KPER 2

end timestep


start timestep kper="2" kstp="2503" mode="normal"


 FMI SETTING BUDGET TERMS FOR KSTP 2503 AND KPER 2 TO BUDGET FILE TERMS FROM KSTP 1 AND KPER 2

 FMI SETTING HEAD FOR KSTP 2503 AND KPER 2 TO BINARY FILE HEADS FROM KSTP 1 AND KPER 2

 SFR-1 SETTING BUDGET TERMS FOR KSTP 2503 AND KPER 2 TO BUDGET FILE TERMS FROM KSTP 1 AND KPER 2

end timestep


start timestep kper="2" kstp="2504" mode="normal"


 FMI SETTING BUDGET TERMS FOR KSTP 2504 AND KPER 2 TO BUDGET FILE TERMS FROM KSTP 1 AND KPER 2

 FMI SETTING HEAD FOR KSTP 2504 AND KPER 2 TO BINARY FILE HEADS FROM KSTP 1 AND KPER 2

 SFR-1 SETTING BUDGET TERMS FOR KSTP 2504 AND KPER 2 TO BUDGET FILE TERMS FROM KSTP 1 AND KPER 2

end timestep


start timestep kper="2" kstp="2505" mode="normal"


 FMI SETTING BUDGET TERMS FOR KSTP 2505 AND KPER 2 TO BUDGET FILE TERMS FROM KSTP 1 AND KPER 2

 FMI SETTING HEAD FOR KSTP 2505 AND KPER 2 TO BINARY FILE HEADS FROM KSTP 1 AND KPER 2

 SFR-1 SETTING BUDGET TERMS FOR KSTP 2505 AND KPER 2 TO BUDGET FILE TERMS FROM KSTP 1 AND KPER 2

end timestep


start timestep kper="2" kstp="2506" mode="normal"


 FMI SETTING BUDGET TERMS FOR KSTP 2506 AND KPER 2 TO BUDGET FILE TERMS FROM KSTP 1 AND KPER 2

 FMI SETTING HEAD FOR KSTP 2506 AND KPER 2 TO BINARY FILE HEADS FROM KSTP 1 AND KPER 2

 SFR-1 SETTING BUDGET TERMS FOR KSTP 2506 AND KPER 2 TO BUDGET FILE TERMS FROM KSTP 1 AND KPER 2

end timestep


start timestep kper="2" kstp="2507" mode="normal"


 FMI SETTING BUDGET TERMS FOR KSTP 2507 AND KPER 2 TO BUDGET FILE TERMS FROM KSTP 1 AND KPER 2

 FMI SETTING HEAD FOR KSTP 2507 AND KPER 2 TO BINARY FILE HEADS FROM KSTP 1 AND KPER 2

 SFR-1 SETTING BUDGET TERMS FOR KSTP 2507 AND KPER 2 TO BUDGET FILE TERMS FROM KSTP 1 AND KPER 2

end timestep


start timestep kper="2" kstp="2508" mode="normal"


 FMI SETTING BUDGET TERMS FOR KSTP 2508 AND KPER 2 TO BUDGET FILE TERMS FROM KSTP 1 AND KPER 2

 FMI SETTING HEAD FOR KSTP 2508 AND KPER 2 TO BINARY FILE HEADS FROM KSTP 1 AND KPER 2

 SFR-1 SETTING BUDGET TERMS FOR KSTP 2508 AND KPER 2 TO BUDGET FILE TERMS FROM KSTP 1 AND KPER 2

end timestep


start timestep kper="2" kstp="2509" mode="normal"


 FMI SETTING BUDGET TERMS FOR KSTP 2509 AND KPER 2 TO BUDGET FILE TERMS FROM KSTP 1 AND KPER 2

 FMI SETTING HEAD FOR KSTP 2509 AND KPER 2 TO BINARY FILE HEADS FROM KSTP 1 AND KPER 2

 SFR-1 SETTING BUDGET TERMS FOR KSTP 2509 AND KPER 2 TO BUDGET FILE TERMS FROM KSTP 1 AND KPER 2

end timestep


start timestep kper="2" kstp="2510" mode="normal"


 FMI SETTING BUDGET TERMS FOR KSTP 2510 AND KPER 2 TO BUDGET FILE TERMS FROM KSTP 1 AND KPER 2

 FMI SETTING HEAD FOR KSTP 2510 AND KPER 2 TO BINARY FILE HEADS FROM KSTP 1 AND KPER 2

 SFR-1 SETTING BUDGET TERMS FOR KSTP 2510 AND KPER 2 TO BUDGET FILE TERMS FROM KSTP 1 AND KPER 2

 CONCENTRATION WILL BE SAVED ON UNIT 1024 AT END OF TIME STEP 2510, STRESS PERIOD    2

end timestep


start timestep kper="2" kstp="2511" mode="normal"


 FMI SETTING BUDGET TERMS FOR KSTP 2511 AND KPER 2 TO BUDGET FILE TERMS FROM KSTP 1 AND KPER 2

 FMI SETTING HEAD FOR KSTP 2511 AND KPER 2 TO BINARY FILE HEADS FROM KSTP 1 AND KPER 2

 SFR-1 SETTING BUDGET TERMS FOR KSTP 2511 AND KPER 2 TO BUDGET FILE TERMS FROM KSTP 1 AND KPER 2

end timestep


start timestep kper="2" kstp="2512" mode="normal"


 FMI SETTING BUDGET TERMS FOR KSTP 2512 AND KPER 2 TO BUDGET FILE TERMS FROM KSTP 1 AND KPER 2

 FMI SETTING HEAD FOR KSTP 2512 AND KPER 2 TO BINARY FILE HEADS FROM KSTP 1 AND KPER 2

 SFR-1 SETTING BUDGET TERMS FOR KSTP 2512 AND KPER 2 TO BUDGET FILE TERMS FROM KSTP 1 AND KPER 2

end timestep


start timestep kper="2" kstp="2513" mode="normal"


 FMI SETTING BUDGET TERMS FOR KSTP 2513 AND KPER 2 TO BUDGET FILE TERMS FROM KSTP 1 AND KPER 2

 FMI SETTING HEAD FOR KSTP 2513 AND KPER 2 TO BINARY FILE HEADS FROM KSTP 1 AND KPER 2

 SFR-1 SETTING BUDGET TERMS FOR KSTP 2513 AND KPER 2 TO BUDGET FILE TERMS FROM KSTP 1 AND KPER 2

end timestep


start timestep kper="2" kstp="2514" mode="normal"


 FMI SETTING BUDGET TERMS FOR KSTP 2514 AND KPER 2 TO BUDGET FILE TERMS FROM KSTP 1 AND KPER 2

 FMI SETTING HEAD FOR KSTP 2514 AND KPER 2 TO BINARY FILE HEADS FROM KSTP 1 AND KPER 2

 SFR-1 SETTING BUDGET TERMS FOR KSTP 2514 AND KPER 2 TO BUDGET FILE TERMS FROM KSTP 1 AND KPER 2

end timestep


start timestep kper="2" kstp="2515" mode="normal"


 FMI SETTING BUDGET TERMS FOR KSTP 2515 AND KPER 2 TO BUDGET FILE TERMS FROM KSTP 1 AND KPER 2

 FMI SETTING HEAD FOR KSTP 2515 AND KPER 2 TO BINARY FILE HEADS FROM KSTP 1 AND KPER 2

 SFR-1 SETTING BUDGET TERMS FOR KSTP 2515 AND KPER 2 TO BUDGET FILE TERMS FROM KSTP 1 AND KPER 2

end timestep


start timestep kper="2" kstp="2516" mode="normal"


 FMI SETTING BUDGET TERMS FOR KSTP 2516 AND KPER 2 TO BUDGET FILE TERMS FROM KSTP 1 AND KPER 2

 FMI SETTING HEAD FOR KSTP 2516 AND KPER 2 TO BINARY FILE HEADS FROM KSTP 1 AND KPER 2

 SFR-1 SETTING BUDGET TERMS FOR KSTP 2516 AND KPER 2 TO BUDGET FILE TERMS FROM KSTP 1 AND KPER 2

end timestep


start timestep kper="2" kstp="2517" mode="normal"


 FMI SETTING BUDGET TERMS FOR KSTP 2517 AND KPER 2 TO BUDGET FILE TERMS FROM KSTP 1 AND KPER 2

 FMI SETTING HEAD FOR KSTP 2517 AND KPER 2 TO BINARY FILE HEADS FROM KSTP 1 AND KPER 2

 SFR-1 SETTING BUDGET TERMS FOR KSTP 2517 AND KPER 2 TO BUDGET FILE TERMS FROM KSTP 1 AND KPER 2

end timestep


start timestep kper="2" kstp="2518" mode="normal"


 FMI SETTING BUDGET TERMS FOR KSTP 2518 AND KPER 2 TO BUDGET FILE TERMS FROM KSTP 1 AND KPER 2

 FMI SETTING HEAD FOR KSTP 2518 AND KPER 2 TO BINARY FILE HEADS FROM KSTP 1 AND KPER 2

 SFR-1 SETTING BUDGET TERMS FOR KSTP 2518 AND KPER 2 TO BUDGET FILE TERMS FROM KSTP 1 AND KPER 2

end timestep


start timestep kper="2" kstp="2519" mode="normal"


 FMI SETTING BUDGET TERMS FOR KSTP 2519 AND KPER 2 TO BUDGET FILE TERMS FROM KSTP 1 AND KPER 2

 FMI SETTING HEAD FOR KSTP 2519 AND KPER 2 TO BINARY FILE HEADS FROM KSTP 1 AND KPER 2

 SFR-1 SETTING BUDGET TERMS FOR KSTP 2519 AND KPER 2 TO BUDGET FILE TERMS FROM KSTP 1 AND KPER 2

end timestep


start timestep kper="2" kstp="2520" mode="normal"


 FMI SETTING BUDGET TERMS FOR KSTP 2520 AND KPER 2 TO BUDGET FILE TERMS FROM KSTP 1 AND KPER 2

 FMI SETTING HEAD FOR KSTP 2520 AND KPER 2 TO BINARY FILE HEADS FROM KSTP 1 AND KPER 2

 SFR-1 SETTING BUDGET TERMS FOR KSTP 2520 AND KPER 2 TO BUDGET FILE TERMS FROM KSTP 1 AND KPER 2

 CONCENTRATION WILL BE SAVED ON UNIT 1024 AT END OF TIME STEP 2520, STRESS PERIOD    2

end timestep


start timestep kper="2" kstp="2521" mode="normal"


 FMI SETTING BUDGET TERMS FOR KSTP 2521 AND KPER 2 TO BUDGET FILE TERMS FROM KSTP 1 AND KPER 2

 FMI SETTING HEAD FOR KSTP 2521 AND KPER 2 TO BINARY FILE HEADS FROM KSTP 1 AND KPER 2

 SFR-1 SETTING BUDGET TERMS FOR KSTP 2521 AND KPER 2 TO BUDGET FILE TERMS FROM KSTP 1 AND KPER 2

end timestep


start timestep kper="2" kstp="2522" mode="normal"


 FMI SETTING BUDGET TERMS FOR KSTP 2522 AND KPER 2 TO BUDGET FILE TERMS FROM KSTP 1 AND KPER 2

 FMI SETTING HEAD FOR KSTP 2522 AND KPER 2 TO BINARY FILE HEADS FROM KSTP 1 AND KPER 2

 SFR-1 SETTING BUDGET TERMS FOR KSTP 2522 AND KPER 2 TO BUDGET FILE TERMS FROM KSTP 1 AND KPER 2

end timestep


start timestep kper="2" kstp="2523" mode="normal"


 FMI SETTING BUDGET TERMS FOR KSTP 2523 AND KPER 2 TO BUDGET FILE TERMS FROM KSTP 1 AND KPER 2

 FMI SETTING HEAD FOR KSTP 2523 AND KPER 2 TO BINARY FILE HEADS FROM KSTP 1 AND KPER 2

 SFR-1 SETTING BUDGET TERMS FOR KSTP 2523 AND KPER 2 TO BUDGET FILE TERMS FROM KSTP 1 AND KPER 2

end timestep


start timestep kper="2" kstp="2524" mode="normal"


 FMI SETTING BUDGET TERMS FOR KSTP 2524 AND KPER 2 TO BUDGET FILE TERMS FROM KSTP 1 AND KPER 2

 FMI SETTING HEAD FOR KSTP 2524 AND KPER 2 TO BINARY FILE HEADS FROM KSTP 1 AND KPER 2

 SFR-1 SETTING BUDGET TERMS FOR KSTP 2524 AND KPER 2 TO BUDGET FILE TERMS FROM KSTP 1 AND KPER 2

end timestep


start timestep kper="2" kstp="2525" mode="normal"


 FMI SETTING BUDGET TERMS FOR KSTP 2525 AND KPER 2 TO BUDGET FILE TERMS FROM KSTP 1 AND KPER 2

 FMI SETTING HEAD FOR KSTP 2525 AND KPER 2 TO BINARY FILE HEADS FROM KSTP 1 AND KPER 2

 SFR-1 SETTING BUDGET TERMS FOR KSTP 2525 AND KPER 2 TO BUDGET FILE TERMS FROM KSTP 1 AND KPER 2

end timestep


start timestep kper="2" kstp="2526" mode="normal"


 FMI SETTING BUDGET TERMS FOR KSTP 2526 AND KPER 2 TO BUDGET FILE TERMS FROM KSTP 1 AND KPER 2

 FMI SETTING HEAD FOR KSTP 2526 AND KPER 2 TO BINARY FILE HEADS FROM KSTP 1 AND KPER 2

 SFR-1 SETTING BUDGET TERMS FOR KSTP 2526 AND KPER 2 TO BUDGET FILE TERMS FROM KSTP 1 AND KPER 2

end timestep


start timestep kper="2" kstp="2527" mode="normal"


 FMI SETTING BUDGET TERMS FOR KSTP 2527 AND KPER 2 TO BUDGET FILE TERMS FROM KSTP 1 AND KPER 2

 FMI SETTING HEAD FOR KSTP 2527 AND KPER 2 TO BINARY FILE HEADS FROM KSTP 1 AND KPER 2

 SFR-1 SETTING BUDGET TERMS FOR KSTP 2527 AND KPER 2 TO BUDGET FILE TERMS FROM KSTP 1 AND KPER 2

end timestep


start timestep kper="2" kstp="2528" mode="normal"


 FMI SETTING BUDGET TERMS FOR KSTP 2528 AND KPER 2 TO BUDGET FILE TERMS FROM KSTP 1 AND KPER 2

 FMI SETTING HEAD FOR KSTP 2528 AND KPER 2 TO BINARY FILE HEADS FROM KSTP 1 AND KPER 2

 SFR-1 SETTING BUDGET TERMS FOR KSTP 2528 AND KPER 2 TO BUDGET FILE TERMS FROM KSTP 1 AND KPER 2

end timestep


start timestep kper="2" kstp="2529" mode="normal"


 FMI SETTING BUDGET TERMS FOR KSTP 2529 AND KPER 2 TO BUDGET FILE TERMS FROM KSTP 1 AND KPER 2

 FMI SETTING HEAD FOR KSTP 2529 AND KPER 2 TO BINARY FILE HEADS FROM KSTP 1 AND KPER 2

 SFR-1 SETTING BUDGET TERMS FOR KSTP 2529 AND KPER 2 TO BUDGET FILE TERMS FROM KSTP 1 AND KPER 2

end timestep


start timestep kper="2" kstp="2530" mode="normal"


 FMI SETTING BUDGET TERMS FOR KSTP 2530 AND KPER 2 TO BUDGET FILE TERMS FROM KSTP 1 AND KPER 2

 FMI SETTING HEAD FOR KSTP 2530 AND KPER 2 TO BINARY FILE HEADS FROM KSTP 1 AND KPER 2

 SFR-1 SETTING BUDGET TERMS FOR KSTP 2530 AND KPER 2 TO BUDGET FILE TERMS FROM KSTP 1 AND KPER 2

 CONCENTRATION WILL BE SAVED ON UNIT 1024 AT END OF TIME STEP 2530, STRESS PERIOD    2

end timestep


start timestep kper="2" kstp="2531" mode="normal"


 FMI SETTING BUDGET TERMS FOR KSTP 2531 AND KPER 2 TO BUDGET FILE TERMS FROM KSTP 1 AND KPER 2

 FMI SETTING HEAD FOR KSTP 2531 AND KPER 2 TO BINARY FILE HEADS FROM KSTP 1 AND KPER 2

 SFR-1 SETTING BUDGET TERMS FOR KSTP 2531 AND KPER 2 TO BUDGET FILE TERMS FROM KSTP 1 AND KPER 2

end timestep


start timestep kper="2" kstp="2532" mode="normal"


 FMI SETTING BUDGET TERMS FOR KSTP 2532 AND KPER 2 TO BUDGET FILE TERMS FROM KSTP 1 AND KPER 2

 FMI SETTING HEAD FOR KSTP 2532 AND KPER 2 TO BINARY FILE HEADS FROM KSTP 1 AND KPER 2

 SFR-1 SETTING BUDGET TERMS FOR KSTP 2532 AND KPER 2 TO BUDGET FILE TERMS FROM KSTP 1 AND KPER 2

end timestep


start timestep kper="2" kstp="2533" mode="normal"


 FMI SETTING BUDGET TERMS FOR KSTP 2533 AND KPER 2 TO BUDGET FILE TERMS FROM KSTP 1 AND KPER 2

 FMI SETTING HEAD FOR KSTP 2533 AND KPER 2 TO BINARY FILE HEADS FROM KSTP 1 AND KPER 2

 SFR-1 SETTING BUDGET TERMS FOR KSTP 2533 AND KPER 2 TO BUDGET FILE TERMS FROM KSTP 1 AND KPER 2

end timestep


start timestep kper="2" kstp="2534" mode="normal"


 FMI SETTING BUDGET TERMS FOR KSTP 2534 AND KPER 2 TO BUDGET FILE TERMS FROM KSTP 1 AND KPER 2

 FMI SETTING HEAD FOR KSTP 2534 AND KPER 2 TO BINARY FILE HEADS FROM KSTP 1 AND KPER 2

 SFR-1 SETTING BUDGET TERMS FOR KSTP 2534 AND KPER 2 TO BUDGET FILE TERMS FROM KSTP 1 AND KPER 2

end timestep


start timestep kper="2" kstp="2535" mode="normal"


 FMI SETTING BUDGET TERMS FOR KSTP 2535 AND KPER 2 TO BUDGET FILE TERMS FROM KSTP 1 AND KPER 2

 FMI SETTING HEAD FOR KSTP 2535 AND KPER 2 TO BINARY FILE HEADS FROM KSTP 1 AND KPER 2

 SFR-1 SETTING BUDGET TERMS FOR KSTP 2535 AND KPER 2 TO BUDGET FILE TERMS FROM KSTP 1 AND KPER 2

end timestep


start timestep kper="2" kstp="2536" mode="normal"


 FMI SETTING BUDGET TERMS FOR KSTP 2536 AND KPER 2 TO BUDGET FILE TERMS FROM KSTP 1 AND KPER 2

 FMI SETTING HEAD FOR KSTP 2536 AND KPER 2 TO BINARY FILE HEADS FROM KSTP 1 AND KPER 2

 SFR-1 SETTING BUDGET TERMS FOR KSTP 2536 AND KPER 2 TO BUDGET FILE TERMS FROM KSTP 1 AND KPER 2

end timestep


start timestep kper="2" kstp="2537" mode="normal"


 FMI SETTING BUDGET TERMS FOR KSTP 2537 AND KPER 2 TO BUDGET FILE TERMS FROM KSTP 1 AND KPER 2

 FMI SETTING HEAD FOR KSTP 2537 AND KPER 2 TO BINARY FILE HEADS FROM KSTP 1 AND KPER 2

 SFR-1 SETTING BUDGET TERMS FOR KSTP 2537 AND KPER 2 TO BUDGET FILE TERMS FROM KSTP 1 AND KPER 2

end timestep


start timestep kper="2" kstp="2538" mode="normal"


 FMI SETTING BUDGET TERMS FOR KSTP 2538 AND KPER 2 TO BUDGET FILE TERMS FROM KSTP 1 AND KPER 2

 FMI SETTING HEAD FOR KSTP 2538 AND KPER 2 TO BINARY FILE HEADS FROM KSTP 1 AND KPER 2

 SFR-1 SETTING BUDGET TERMS FOR KSTP 2538 AND KPER 2 TO BUDGET FILE TERMS FROM KSTP 1 AND KPER 2

end timestep


start timestep kper="2" kstp="2539" mode="normal"


 FMI SETTING BUDGET TERMS FOR KSTP 2539 AND KPER 2 TO BUDGET FILE TERMS FROM KSTP 1 AND KPER 2

 FMI SETTING HEAD FOR KSTP 2539 AND KPER 2 TO BINARY FILE HEADS FROM KSTP 1 AND KPER 2

 SFR-1 SETTING BUDGET TERMS FOR KSTP 2539 AND KPER 2 TO BUDGET FILE TERMS FROM KSTP 1 AND KPER 2

end timestep


start timestep kper="2" kstp="2540" mode="normal"


 FMI SETTING BUDGET TERMS FOR KSTP 2540 AND KPER 2 TO BUDGET FILE TERMS FROM KSTP 1 AND KPER 2

 FMI SETTING HEAD FOR KSTP 2540 AND KPER 2 TO BINARY FILE HEADS FROM KSTP 1 AND KPER 2

 SFR-1 SETTING BUDGET TERMS FOR KSTP 2540 AND KPER 2 TO BUDGET FILE TERMS FROM KSTP 1 AND KPER 2

 CONCENTRATION WILL BE SAVED ON UNIT 1024 AT END OF TIME STEP 2540, STRESS PERIOD    2

end timestep


start timestep kper="2" kstp="2541" mode="normal"


 FMI SETTING BUDGET TERMS FOR KSTP 2541 AND KPER 2 TO BUDGET FILE TERMS FROM KSTP 1 AND KPER 2

 FMI SETTING HEAD FOR KSTP 2541 AND KPER 2 TO BINARY FILE HEADS FROM KSTP 1 AND KPER 2

 SFR-1 SETTING BUDGET TERMS FOR KSTP 2541 AND KPER 2 TO BUDGET FILE TERMS FROM KSTP 1 AND KPER 2

end timestep


start timestep kper="2" kstp="2542" mode="normal"


 FMI SETTING BUDGET TERMS FOR KSTP 2542 AND KPER 2 TO BUDGET FILE TERMS FROM KSTP 1 AND KPER 2

 FMI SETTING HEAD FOR KSTP 2542 AND KPER 2 TO BINARY FILE HEADS FROM KSTP 1 AND KPER 2

 SFR-1 SETTING BUDGET TERMS FOR KSTP 2542 AND KPER 2 TO BUDGET FILE TERMS FROM KSTP 1 AND KPER 2

end timestep


start timestep kper="2" kstp="2543" mode="normal"


 FMI SETTING BUDGET TERMS FOR KSTP 2543 AND KPER 2 TO BUDGET FILE TERMS FROM KSTP 1 AND KPER 2

 FMI SETTING HEAD FOR KSTP 2543 AND KPER 2 TO BINARY FILE HEADS FROM KSTP 1 AND KPER 2

 SFR-1 SETTING BUDGET TERMS FOR KSTP 2543 AND KPER 2 TO BUDGET FILE TERMS FROM KSTP 1 AND KPER 2

end timestep


start timestep kper="2" kstp="2544" mode="normal"


 FMI SETTING BUDGET TERMS FOR KSTP 2544 AND KPER 2 TO BUDGET FILE TERMS FROM KSTP 1 AND KPER 2

 FMI SETTING HEAD FOR KSTP 2544 AND KPER 2 TO BINARY FILE HEADS FROM KSTP 1 AND KPER 2

 SFR-1 SETTING BUDGET TERMS FOR KSTP 2544 AND KPER 2 TO BUDGET FILE TERMS FROM KSTP 1 AND KPER 2

end timestep


start timestep kper="2" kstp="2545" mode="normal"


 FMI SETTING BUDGET TERMS FOR KSTP 2545 AND KPER 2 TO BUDGET FILE TERMS FROM KSTP 1 AND KPER 2

 FMI SETTING HEAD FOR KSTP 2545 AND KPER 2 TO BINARY FILE HEADS FROM KSTP 1 AND KPER 2

 SFR-1 SETTING BUDGET TERMS FOR KSTP 2545 AND KPER 2 TO BUDGET FILE TERMS FROM KSTP 1 AND KPER 2

end timestep


start timestep kper="2" kstp="2546" mode="normal"


 FMI SETTING BUDGET TERMS FOR KSTP 2546 AND KPER 2 TO BUDGET FILE TERMS FROM KSTP 1 AND KPER 2

 FMI SETTING HEAD FOR KSTP 2546 AND KPER 2 TO BINARY FILE HEADS FROM KSTP 1 AND KPER 2

 SFR-1 SETTING BUDGET TERMS FOR KSTP 2546 AND KPER 2 TO BUDGET FILE TERMS FROM KSTP 1 AND KPER 2

end timestep


start timestep kper="2" kstp="2547" mode="normal"


 FMI SETTING BUDGET TERMS FOR KSTP 2547 AND KPER 2 TO BUDGET FILE TERMS FROM KSTP 1 AND KPER 2

 FMI SETTING HEAD FOR KSTP 2547 AND KPER 2 TO BINARY FILE HEADS FROM KSTP 1 AND KPER 2

 SFR-1 SETTING BUDGET TERMS FOR KSTP 2547 AND KPER 2 TO BUDGET FILE TERMS FROM KSTP 1 AND KPER 2

end timestep


start timestep kper="2" kstp="2548" mode="normal"


 FMI SETTING BUDGET TERMS FOR KSTP 2548 AND KPER 2 TO BUDGET FILE TERMS FROM KSTP 1 AND KPER 2

 FMI SETTING HEAD FOR KSTP 2548 AND KPER 2 TO BINARY FILE HEADS FROM KSTP 1 AND KPER 2

 SFR-1 SETTING BUDGET TERMS FOR KSTP 2548 AND KPER 2 TO BUDGET FILE TERMS FROM KSTP 1 AND KPER 2

end timestep


start timestep kper="2" kstp="2549" mode="normal"


 FMI SETTING BUDGET TERMS FOR KSTP 2549 AND KPER 2 TO BUDGET FILE TERMS FROM KSTP 1 AND KPER 2

 FMI SETTING HEAD FOR KSTP 2549 AND KPER 2 TO BINARY FILE HEADS FROM KSTP 1 AND KPER 2

 SFR-1 SETTING BUDGET TERMS FOR KSTP 2549 AND KPER 2 TO BUDGET FILE TERMS FROM KSTP 1 AND KPER 2

end timestep


start timestep kper="2" kstp="2550" mode="normal"


 FMI SETTING BUDGET TERMS FOR KSTP 2550 AND KPER 2 TO BUDGET FILE TERMS FROM KSTP 1 AND KPER 2

 FMI SETTING HEAD FOR KSTP 2550 AND KPER 2 TO BINARY FILE HEADS FROM KSTP 1 AND KPER 2

 SFR-1 SETTING BUDGET TERMS FOR KSTP 2550 AND KPER 2 TO BUDGET FILE TERMS FROM KSTP 1 AND KPER 2

 CONCENTRATION WILL BE SAVED ON UNIT 1024 AT END OF TIME STEP 2550, STRESS PERIOD    2

end timestep


start timestep kper="2" kstp="2551" mode="normal"


 FMI SETTING BUDGET TERMS FOR KSTP 2551 AND KPER 2 TO BUDGET FILE TERMS FROM KSTP 1 AND KPER 2

 FMI SETTING HEAD FOR KSTP 2551 AND KPER 2 TO BINARY FILE HEADS FROM KSTP 1 AND KPER 2

 SFR-1 SETTING BUDGET TERMS FOR KSTP 2551 AND KPER 2 TO BUDGET FILE TERMS FROM KSTP 1 AND KPER 2

end timestep


start timestep kper="2" kstp="2552" mode="normal"


 FMI SETTING BUDGET TERMS FOR KSTP 2552 AND KPER 2 TO BUDGET FILE TERMS FROM KSTP 1 AND KPER 2

 FMI SETTING HEAD FOR KSTP 2552 AND KPER 2 TO BINARY FILE HEADS FROM KSTP 1 AND KPER 2

 SFR-1 SETTING BUDGET TERMS FOR KSTP 2552 AND KPER 2 TO BUDGET FILE TERMS FROM KSTP 1 AND KPER 2

end timestep


start timestep kper="2" kstp="2553" mode="normal"


 FMI SETTING BUDGET TERMS FOR KSTP 2553 AND KPER 2 TO BUDGET FILE TERMS FROM KSTP 1 AND KPER 2

 FMI SETTING HEAD FOR KSTP 2553 AND KPER 2 TO BINARY FILE HEADS FROM KSTP 1 AND KPER 2

 SFR-1 SETTING BUDGET TERMS FOR KSTP 2553 AND KPER 2 TO BUDGET FILE TERMS FROM KSTP 1 AND KPER 2

end timestep


start timestep kper="2" kstp="2554" mode="normal"


 FMI SETTING BUDGET TERMS FOR KSTP 2554 AND KPER 2 TO BUDGET FILE TERMS FROM KSTP 1 AND KPER 2

 FMI SETTING HEAD FOR KSTP 2554 AND KPER 2 TO BINARY FILE HEADS FROM KSTP 1 AND KPER 2

 SFR-1 SETTING BUDGET TERMS FOR KSTP 2554 AND KPER 2 TO BUDGET FILE TERMS FROM KSTP 1 AND KPER 2

end timestep


start timestep kper="2" kstp="2555" mode="normal"


 FMI SETTING BUDGET TERMS FOR KSTP 2555 AND KPER 2 TO BUDGET FILE TERMS FROM KSTP 1 AND KPER 2

 FMI SETTING HEAD FOR KSTP 2555 AND KPER 2 TO BINARY FILE HEADS FROM KSTP 1 AND KPER 2

 SFR-1 SETTING BUDGET TERMS FOR KSTP 2555 AND KPER 2 TO BUDGET FILE TERMS FROM KSTP 1 AND KPER 2

end timestep


start timestep kper="2" kstp="2556" mode="normal"


 FMI SETTING BUDGET TERMS FOR KSTP 2556 AND KPER 2 TO BUDGET FILE TERMS FROM KSTP 1 AND KPER 2

 FMI SETTING HEAD FOR KSTP 2556 AND KPER 2 TO BINARY FILE HEADS FROM KSTP 1 AND KPER 2

 SFR-1 SETTING BUDGET TERMS FOR KSTP 2556 AND KPER 2 TO BUDGET FILE TERMS FROM KSTP 1 AND KPER 2

end timestep


start timestep kper="2" kstp="2557" mode="normal"


 FMI SETTING BUDGET TERMS FOR KSTP 2557 AND KPER 2 TO BUDGET FILE TERMS FROM KSTP 1 AND KPER 2

 FMI SETTING HEAD FOR KSTP 2557 AND KPER 2 TO BINARY FILE HEADS FROM KSTP 1 AND KPER 2

 SFR-1 SETTING BUDGET TERMS FOR KSTP 2557 AND KPER 2 TO BUDGET FILE TERMS FROM KSTP 1 AND KPER 2

end timestep


start timestep kper="2" kstp="2558" mode="normal"


 FMI SETTING BUDGET TERMS FOR KSTP 2558 AND KPER 2 TO BUDGET FILE TERMS FROM KSTP 1 AND KPER 2

 FMI SETTING HEAD FOR KSTP 2558 AND KPER 2 TO BINARY FILE HEADS FROM KSTP 1 AND KPER 2

 SFR-1 SETTING BUDGET TERMS FOR KSTP 2558 AND KPER 2 TO BUDGET FILE TERMS FROM KSTP 1 AND KPER 2

end timestep


start timestep kper="2" kstp="2559" mode="normal"


 FMI SETTING BUDGET TERMS FOR KSTP 2559 AND KPER 2 TO BUDGET FILE TERMS FROM KSTP 1 AND KPER 2

 FMI SETTING HEAD FOR KSTP 2559 AND KPER 2 TO BINARY FILE HEADS FROM KSTP 1 AND KPER 2

 SFR-1 SETTING BUDGET TERMS FOR KSTP 2559 AND KPER 2 TO BUDGET FILE TERMS FROM KSTP 1 AND KPER 2

end timestep


start timestep kper="2" kstp="2560" mode="normal"


 FMI SETTING BUDGET TERMS FOR KSTP 2560 AND KPER 2 TO BUDGET FILE TERMS FROM KSTP 1 AND KPER 2

 FMI SETTING HEAD FOR KSTP 2560 AND KPER 2 TO BINARY FILE HEADS FROM KSTP 1 AND KPER 2

 SFR-1 SETTING BUDGET TERMS FOR KSTP 2560 AND KPER 2 TO BUDGET FILE TERMS FROM KSTP 1 AND KPER 2

 CONCENTRATION WILL BE SAVED ON UNIT 1024 AT END OF TIME STEP 2560, STRESS PERIOD    2

end timestep


start timestep kper="2" kstp="2561" mode="normal"


 FMI SETTING BUDGET TERMS FOR KSTP 2561 AND KPER 2 TO BUDGET FILE TERMS FROM KSTP 1 AND KPER 2

 FMI SETTING HEAD FOR KSTP 2561 AND KPER 2 TO BINARY FILE HEADS FROM KSTP 1 AND KPER 2

 SFR-1 SETTING BUDGET TERMS FOR KSTP 2561 AND KPER 2 TO BUDGET FILE TERMS FROM KSTP 1 AND KPER 2

end timestep


start timestep kper="2" kstp="2562" mode="normal"


 FMI SETTING BUDGET TERMS FOR KSTP 2562 AND KPER 2 TO BUDGET FILE TERMS FROM KSTP 1 AND KPER 2

 FMI SETTING HEAD FOR KSTP 2562 AND KPER 2 TO BINARY FILE HEADS FROM KSTP 1 AND KPER 2

 SFR-1 SETTING BUDGET TERMS FOR KSTP 2562 AND KPER 2 TO BUDGET FILE TERMS FROM KSTP 1 AND KPER 2

end timestep


start timestep kper="2" kstp="2563" mode="normal"


 FMI SETTING BUDGET TERMS FOR KSTP 2563 AND KPER 2 TO BUDGET FILE TERMS FROM KSTP 1 AND KPER 2

 FMI SETTING HEAD FOR KSTP 2563 AND KPER 2 TO BINARY FILE HEADS FROM KSTP 1 AND KPER 2

 SFR-1 SETTING BUDGET TERMS FOR KSTP 2563 AND KPER 2 TO BUDGET FILE TERMS FROM KSTP 1 AND KPER 2

end timestep


start timestep kper="2" kstp="2564" mode="normal"


 FMI SETTING BUDGET TERMS FOR KSTP 2564 AND KPER 2 TO BUDGET FILE TERMS FROM KSTP 1 AND KPER 2

 FMI SETTING HEAD FOR KSTP 2564 AND KPER 2 TO BINARY FILE HEADS FROM KSTP 1 AND KPER 2

 SFR-1 SETTING BUDGET TERMS FOR KSTP 2564 AND KPER 2 TO BUDGET FILE TERMS FROM KSTP 1 AND KPER 2

end timestep


start timestep kper="2" kstp="2565" mode="normal"


 FMI SETTING BUDGET TERMS FOR KSTP 2565 AND KPER 2 TO BUDGET FILE TERMS FROM KSTP 1 AND KPER 2

 FMI SETTING HEAD FOR KSTP 2565 AND KPER 2 TO BINARY FILE HEADS FROM KSTP 1 AND KPER 2

 SFR-1 SETTING BUDGET TERMS FOR KSTP 2565 AND KPER 2 TO BUDGET FILE TERMS FROM KSTP 1 AND KPER 2

end timestep


start timestep kper="2" kstp="2566" mode="normal"


 FMI SETTING BUDGET TERMS FOR KSTP 2566 AND KPER 2 TO BUDGET FILE TERMS FROM KSTP 1 AND KPER 2

 FMI SETTING HEAD FOR KSTP 2566 AND KPER 2 TO BINARY FILE HEADS FROM KSTP 1 AND KPER 2

 SFR-1 SETTING BUDGET TERMS FOR KSTP 2566 AND KPER 2 TO BUDGET FILE TERMS FROM KSTP 1 AND KPER 2

end timestep


start timestep kper="2" kstp="2567" mode="normal"


 FMI SETTING BUDGET TERMS FOR KSTP 2567 AND KPER 2 TO BUDGET FILE TERMS FROM KSTP 1 AND KPER 2

 FMI SETTING HEAD FOR KSTP 2567 AND KPER 2 TO BINARY FILE HEADS FROM KSTP 1 AND KPER 2

 SFR-1 SETTING BUDGET TERMS FOR KSTP 2567 AND KPER 2 TO BUDGET FILE TERMS FROM KSTP 1 AND KPER 2

end timestep


start timestep kper="2" kstp="2568" mode="normal"


 FMI SETTING BUDGET TERMS FOR KSTP 2568 AND KPER 2 TO BUDGET FILE TERMS FROM KSTP 1 AND KPER 2

 FMI SETTING HEAD FOR KSTP 2568 AND KPER 2 TO BINARY FILE HEADS FROM KSTP 1 AND KPER 2

 SFR-1 SETTING BUDGET TERMS FOR KSTP 2568 AND KPER 2 TO BUDGET FILE TERMS FROM KSTP 1 AND KPER 2

end timestep


start timestep kper="2" kstp="2569" mode="normal"


 FMI SETTING BUDGET TERMS FOR KSTP 2569 AND KPER 2 TO BUDGET FILE TERMS FROM KSTP 1 AND KPER 2

 FMI SETTING HEAD FOR KSTP 2569 AND KPER 2 TO BINARY FILE HEADS FROM KSTP 1 AND KPER 2

 SFR-1 SETTING BUDGET TERMS FOR KSTP 2569 AND KPER 2 TO BUDGET FILE TERMS FROM KSTP 1 AND KPER 2

end timestep


start timestep kper="2" kstp="2570" mode="normal"


 FMI SETTING BUDGET TERMS FOR KSTP 2570 AND KPER 2 TO BUDGET FILE TERMS FROM KSTP 1 AND KPER 2

 FMI SETTING HEAD FOR KSTP 2570 AND KPER 2 TO BINARY FILE HEADS FROM KSTP 1 AND KPER 2

 SFR-1 SETTING BUDGET TERMS FOR KSTP 2570 AND KPER 2 TO BUDGET FILE TERMS FROM KSTP 1 AND KPER 2

 CONCENTRATION WILL BE SAVED ON UNIT 1024 AT END OF TIME STEP 2570, STRESS PERIOD    2

end timestep


start timestep kper="2" kstp="2571" mode="normal"


 FMI SETTING BUDGET TERMS FOR KSTP 2571 AND KPER 2 TO BUDGET FILE TERMS FROM KSTP 1 AND KPER 2

 FMI SETTING HEAD FOR KSTP 2571 AND KPER 2 TO BINARY FILE HEADS FROM KSTP 1 AND KPER 2

 SFR-1 SETTING BUDGET TERMS FOR KSTP 2571 AND KPER 2 TO BUDGET FILE TERMS FROM KSTP 1 AND KPER 2

end timestep


start timestep kper="2" kstp="2572" mode="normal"


 FMI SETTING BUDGET TERMS FOR KSTP 2572 AND KPER 2 TO BUDGET FILE TERMS FROM KSTP 1 AND KPER 2

 FMI SETTING HEAD FOR KSTP 2572 AND KPER 2 TO BINARY FILE HEADS FROM KSTP 1 AND KPER 2

 SFR-1 SETTING BUDGET TERMS FOR KSTP 2572 AND KPER 2 TO BUDGET FILE TERMS FROM KSTP 1 AND KPER 2

end timestep


start timestep kper="2" kstp="2573" mode="normal"


 FMI SETTING BUDGET TERMS FOR KSTP 2573 AND KPER 2 TO BUDGET FILE TERMS FROM KSTP 1 AND KPER 2

 FMI SETTING HEAD FOR KSTP 2573 AND KPER 2 TO BINARY FILE HEADS FROM KSTP 1 AND KPER 2

 SFR-1 SETTING BUDGET TERMS FOR KSTP 2573 AND KPER 2 TO BUDGET FILE TERMS FROM KSTP 1 AND KPER 2

end timestep


start timestep kper="2" kstp="2574" mode="normal"


 FMI SETTING BUDGET TERMS FOR KSTP 2574 AND KPER 2 TO BUDGET FILE TERMS FROM KSTP 1 AND KPER 2

 FMI SETTING HEAD FOR KSTP 2574 AND KPER 2 TO BINARY FILE HEADS FROM KSTP 1 AND KPER 2

 SFR-1 SETTING BUDGET TERMS FOR KSTP 2574 AND KPER 2 TO BUDGET FILE TERMS FROM KSTP 1 AND KPER 2

end timestep


start timestep kper="2" kstp="2575" mode="normal"


 FMI SETTING BUDGET TERMS FOR KSTP 2575 AND KPER 2 TO BUDGET FILE TERMS FROM KSTP 1 AND KPER 2

 FMI SETTING HEAD FOR KSTP 2575 AND KPER 2 TO BINARY FILE HEADS FROM KSTP 1 AND KPER 2

 SFR-1 SETTING BUDGET TERMS FOR KSTP 2575 AND KPER 2 TO BUDGET FILE TERMS FROM KSTP 1 AND KPER 2

end timestep


start timestep kper="2" kstp="2576" mode="normal"


 FMI SETTING BUDGET TERMS FOR KSTP 2576 AND KPER 2 TO BUDGET FILE TERMS FROM KSTP 1 AND KPER 2

 FMI SETTING HEAD FOR KSTP 2576 AND KPER 2 TO BINARY FILE HEADS FROM KSTP 1 AND KPER 2

 SFR-1 SETTING BUDGET TERMS FOR KSTP 2576 AND KPER 2 TO BUDGET FILE TERMS FROM KSTP 1 AND KPER 2

end timestep


start timestep kper="2" kstp="2577" mode="normal"


 FMI SETTING BUDGET TERMS FOR KSTP 2577 AND KPER 2 TO BUDGET FILE TERMS FROM KSTP 1 AND KPER 2

 FMI SETTING HEAD FOR KSTP 2577 AND KPER 2 TO BINARY FILE HEADS FROM KSTP 1 AND KPER 2

 SFR-1 SETTING BUDGET TERMS FOR KSTP 2577 AND KPER 2 TO BUDGET FILE TERMS FROM KSTP 1 AND KPER 2

end timestep


start timestep kper="2" kstp="2578" mode="normal"


 FMI SETTING BUDGET TERMS FOR KSTP 2578 AND KPER 2 TO BUDGET FILE TERMS FROM KSTP 1 AND KPER 2

 FMI SETTING HEAD FOR KSTP 2578 AND KPER 2 TO BINARY FILE HEADS FROM KSTP 1 AND KPER 2

 SFR-1 SETTING BUDGET TERMS FOR KSTP 2578 AND KPER 2 TO BUDGET FILE TERMS FROM KSTP 1 AND KPER 2

end timestep


start timestep kper="2" kstp="2579" mode="normal"


 FMI SETTING BUDGET TERMS FOR KSTP 2579 AND KPER 2 TO BUDGET FILE TERMS FROM KSTP 1 AND KPER 2

 FMI SETTING HEAD FOR KSTP 2579 AND KPER 2 TO BINARY FILE HEADS FROM KSTP 1 AND KPER 2

 SFR-1 SETTING BUDGET TERMS FOR KSTP 2579 AND KPER 2 TO BUDGET FILE TERMS FROM KSTP 1 AND KPER 2

end timestep


start timestep kper="2" kstp="2580" mode="normal"


 FMI SETTING BUDGET TERMS FOR KSTP 2580 AND KPER 2 TO BUDGET FILE TERMS FROM KSTP 1 AND KPER 2

 FMI SETTING HEAD FOR KSTP 2580 AND KPER 2 TO BINARY FILE HEADS FROM KSTP 1 AND KPER 2

 SFR-1 SETTING BUDGET TERMS FOR KSTP 2580 AND KPER 2 TO BUDGET FILE TERMS FROM KSTP 1 AND KPER 2

 CONCENTRATION WILL BE SAVED ON UNIT 1024 AT END OF TIME STEP 2580, STRESS PERIOD    2

end timestep


start timestep kper="2" kstp="2581" mode="normal"


 FMI SETTING BUDGET TERMS FOR KSTP 2581 AND KPER 2 TO BUDGET FILE TERMS FROM KSTP 1 AND KPER 2

 FMI SETTING HEAD FOR KSTP 2581 AND KPER 2 TO BINARY FILE HEADS FROM KSTP 1 AND KPER 2

 SFR-1 SETTING BUDGET TERMS FOR KSTP 2581 AND KPER 2 TO BUDGET FILE TERMS FROM KSTP 1 AND KPER 2

end timestep


start timestep kper="2" kstp="2582" mode="normal"


 FMI SETTING BUDGET TERMS FOR KSTP 2582 AND KPER 2 TO BUDGET FILE TERMS FROM KSTP 1 AND KPER 2

 FMI SETTING HEAD FOR KSTP 2582 AND KPER 2 TO BINARY FILE HEADS FROM KSTP 1 AND KPER 2

 SFR-1 SETTING BUDGET TERMS FOR KSTP 2582 AND KPER 2 TO BUDGET FILE TERMS FROM KSTP 1 AND KPER 2

end timestep


start timestep kper="2" kstp="2583" mode="normal"


 FMI SETTING BUDGET TERMS FOR KSTP 2583 AND KPER 2 TO BUDGET FILE TERMS FROM KSTP 1 AND KPER 2

 FMI SETTING HEAD FOR KSTP 2583 AND KPER 2 TO BINARY FILE HEADS FROM KSTP 1 AND KPER 2

 SFR-1 SETTING BUDGET TERMS FOR KSTP 2583 AND KPER 2 TO BUDGET FILE TERMS FROM KSTP 1 AND KPER 2

end timestep


start timestep kper="2" kstp="2584" mode="normal"


 FMI SETTING BUDGET TERMS FOR KSTP 2584 AND KPER 2 TO BUDGET FILE TERMS FROM KSTP 1 AND KPER 2

 FMI SETTING HEAD FOR KSTP 2584 AND KPER 2 TO BINARY FILE HEADS FROM KSTP 1 AND KPER 2

 SFR-1 SETTING BUDGET TERMS FOR KSTP 2584 AND KPER 2 TO BUDGET FILE TERMS FROM KSTP 1 AND KPER 2

end timestep


start timestep kper="2" kstp="2585" mode="normal"


 FMI SETTING BUDGET TERMS FOR KSTP 2585 AND KPER 2 TO BUDGET FILE TERMS FROM KSTP 1 AND KPER 2

 FMI SETTING HEAD FOR KSTP 2585 AND KPER 2 TO BINARY FILE HEADS FROM KSTP 1 AND KPER 2

 SFR-1 SETTING BUDGET TERMS FOR KSTP 2585 AND KPER 2 TO BUDGET FILE TERMS FROM KSTP 1 AND KPER 2

end timestep


start timestep kper="2" kstp="2586" mode="normal"


 FMI SETTING BUDGET TERMS FOR KSTP 2586 AND KPER 2 TO BUDGET FILE TERMS FROM KSTP 1 AND KPER 2

 FMI SETTING HEAD FOR KSTP 2586 AND KPER 2 TO BINARY FILE HEADS FROM KSTP 1 AND KPER 2

 SFR-1 SETTING BUDGET TERMS FOR KSTP 2586 AND KPER 2 TO BUDGET FILE TERMS FROM KSTP 1 AND KPER 2

end timestep


start timestep kper="2" kstp="2587" mode="normal"


 FMI SETTING BUDGET TERMS FOR KSTP 2587 AND KPER 2 TO BUDGET FILE TERMS FROM KSTP 1 AND KPER 2

 FMI SETTING HEAD FOR KSTP 2587 AND KPER 2 TO BINARY FILE HEADS FROM KSTP 1 AND KPER 2

 SFR-1 SETTING BUDGET TERMS FOR KSTP 2587 AND KPER 2 TO BUDGET FILE TERMS FROM KSTP 1 AND KPER 2

end timestep


start timestep kper="2" kstp="2588" mode="normal"


 FMI SETTING BUDGET TERMS FOR KSTP 2588 AND KPER 2 TO BUDGET FILE TERMS FROM KSTP 1 AND KPER 2

 FMI SETTING HEAD FOR KSTP 2588 AND KPER 2 TO BINARY FILE HEADS FROM KSTP 1 AND KPER 2

 SFR-1 SETTING BUDGET TERMS FOR KSTP 2588 AND KPER 2 TO BUDGET FILE TERMS FROM KSTP 1 AND KPER 2

end timestep


start timestep kper="2" kstp="2589" mode="normal"


 FMI SETTING BUDGET TERMS FOR KSTP 2589 AND KPER 2 TO BUDGET FILE TERMS FROM KSTP 1 AND KPER 2

 FMI SETTING HEAD FOR KSTP 2589 AND KPER 2 TO BINARY FILE HEADS FROM KSTP 1 AND KPER 2

 SFR-1 SETTING BUDGET TERMS FOR KSTP 2589 AND KPER 2 TO BUDGET FILE TERMS FROM KSTP 1 AND KPER 2

end timestep


start timestep kper="2" kstp="2590" mode="normal"


 FMI SETTING BUDGET TERMS FOR KSTP 2590 AND KPER 2 TO BUDGET FILE TERMS FROM KSTP 1 AND KPER 2

 FMI SETTING HEAD FOR KSTP 2590 AND KPER 2 TO BINARY FILE HEADS FROM KSTP 1 AND KPER 2

 SFR-1 SETTING BUDGET TERMS FOR KSTP 2590 AND KPER 2 TO BUDGET FILE TERMS FROM KSTP 1 AND KPER 2

 CONCENTRATION WILL BE SAVED ON UNIT 1024 AT END OF TIME STEP 2590, STRESS PERIOD    2

end timestep


start timestep kper="2" kstp="2591" mode="normal"


 FMI SETTING BUDGET TERMS FOR KSTP 2591 AND KPER 2 TO BUDGET FILE TERMS FROM KSTP 1 AND KPER 2

 FMI SETTING HEAD FOR KSTP 2591 AND KPER 2 TO BINARY FILE HEADS FROM KSTP 1 AND KPER 2

 SFR-1 SETTING BUDGET TERMS FOR KSTP 2591 AND KPER 2 TO BUDGET FILE TERMS FROM KSTP 1 AND KPER 2

end timestep


start timestep kper="2" kstp="2592" mode="normal"


 FMI SETTING BUDGET TERMS FOR KSTP 2592 AND KPER 2 TO BUDGET FILE TERMS FROM KSTP 1 AND KPER 2

 FMI SETTING HEAD FOR KSTP 2592 AND KPER 2 TO BINARY FILE HEADS FROM KSTP 1 AND KPER 2

 SFR-1 SETTING BUDGET TERMS FOR KSTP 2592 AND KPER 2 TO BUDGET FILE TERMS FROM KSTP 1 AND KPER 2

end timestep


start timestep kper="2" kstp="2593" mode="normal"


 FMI SETTING BUDGET TERMS FOR KSTP 2593 AND KPER 2 TO BUDGET FILE TERMS FROM KSTP 1 AND KPER 2

 FMI SETTING HEAD FOR KSTP 2593 AND KPER 2 TO BINARY FILE HEADS FROM KSTP 1 AND KPER 2

 SFR-1 SETTING BUDGET TERMS FOR KSTP 2593 AND KPER 2 TO BUDGET FILE TERMS FROM KSTP 1 AND KPER 2

end timestep


start timestep kper="2" kstp="2594" mode="normal"


 FMI SETTING BUDGET TERMS FOR KSTP 2594 AND KPER 2 TO BUDGET FILE TERMS FROM KSTP 1 AND KPER 2

 FMI SETTING HEAD FOR KSTP 2594 AND KPER 2 TO BINARY FILE HEADS FROM KSTP 1 AND KPER 2

 SFR-1 SETTING BUDGET TERMS FOR KSTP 2594 AND KPER 2 TO BUDGET FILE TERMS FROM KSTP 1 AND KPER 2

end timestep


start timestep kper="2" kstp="2595" mode="normal"


 FMI SETTING BUDGET TERMS FOR KSTP 2595 AND KPER 2 TO BUDGET FILE TERMS FROM KSTP 1 AND KPER 2

 FMI SETTING HEAD FOR KSTP 2595 AND KPER 2 TO BINARY FILE HEADS FROM KSTP 1 AND KPER 2

 SFR-1 SETTING BUDGET TERMS FOR KSTP 2595 AND KPER 2 TO BUDGET FILE TERMS FROM KSTP 1 AND KPER 2

end timestep


start timestep kper="2" kstp="2596" mode="normal"


 FMI SETTING BUDGET TERMS FOR KSTP 2596 AND KPER 2 TO BUDGET FILE TERMS FROM KSTP 1 AND KPER 2

 FMI SETTING HEAD FOR KSTP 2596 AND KPER 2 TO BINARY FILE HEADS FROM KSTP 1 AND KPER 2

 SFR-1 SETTING BUDGET TERMS FOR KSTP 2596 AND KPER 2 TO BUDGET FILE TERMS FROM KSTP 1 AND KPER 2

end timestep


start timestep kper="2" kstp="2597" mode="normal"


 FMI SETTING BUDGET TERMS FOR KSTP 2597 AND KPER 2 TO BUDGET FILE TERMS FROM KSTP 1 AND KPER 2

 FMI SETTING HEAD FOR KSTP 2597 AND KPER 2 TO BINARY FILE HEADS FROM KSTP 1 AND KPER 2

 SFR-1 SETTING BUDGET TERMS FOR KSTP 2597 AND KPER 2 TO BUDGET FILE TERMS FROM KSTP 1 AND KPER 2

end timestep


start timestep kper="2" kstp="2598" mode="normal"


 FMI SETTING BUDGET TERMS FOR KSTP 2598 AND KPER 2 TO BUDGET FILE TERMS FROM KSTP 1 AND KPER 2

 FMI SETTING HEAD FOR KSTP 2598 AND KPER 2 TO BINARY FILE HEADS FROM KSTP 1 AND KPER 2

 SFR-1 SETTING BUDGET TERMS FOR KSTP 2598 AND KPER 2 TO BUDGET FILE TERMS FROM KSTP 1 AND KPER 2

end timestep


start timestep kper="2" kstp="2599" mode="normal"


 FMI SETTING BUDGET TERMS FOR KSTP 2599 AND KPER 2 TO BUDGET FILE TERMS FROM KSTP 1 AND KPER 2

 FMI SETTING HEAD FOR KSTP 2599 AND KPER 2 TO BINARY FILE HEADS FROM KSTP 1 AND KPER 2

 SFR-1 SETTING BUDGET TERMS FOR KSTP 2599 AND KPER 2 TO BUDGET FILE TERMS FROM KSTP 1 AND KPER 2

end timestep


start timestep kper="2" kstp="2600" mode="normal"


 FMI SETTING BUDGET TERMS FOR KSTP 2600 AND KPER 2 TO BUDGET FILE TERMS FROM KSTP 1 AND KPER 2

 FMI SETTING HEAD FOR KSTP 2600 AND KPER 2 TO BINARY FILE HEADS FROM KSTP 1 AND KPER 2

 SFR-1 SETTING BUDGET TERMS FOR KSTP 2600 AND KPER 2 TO BUDGET FILE TERMS FROM KSTP 1 AND KPER 2

 CONCENTRATION WILL BE SAVED ON UNIT 1024 AT END OF TIME STEP 2600, STRESS PERIOD    2

end timestep


start timestep kper="2" kstp="2601" mode="normal"


 FMI SETTING BUDGET TERMS FOR KSTP 2601 AND KPER 2 TO BUDGET FILE TERMS FROM KSTP 1 AND KPER 2

 FMI SETTING HEAD FOR KSTP 2601 AND KPER 2 TO BINARY FILE HEADS FROM KSTP 1 AND KPER 2

 SFR-1 SETTING BUDGET TERMS FOR KSTP 2601 AND KPER 2 TO BUDGET FILE TERMS FROM KSTP 1 AND KPER 2

end timestep


start timestep kper="2" kstp="2602" mode="normal"


 FMI SETTING BUDGET TERMS FOR KSTP 2602 AND KPER 2 TO BUDGET FILE TERMS FROM KSTP 1 AND KPER 2

 FMI SETTING HEAD FOR KSTP 2602 AND KPER 2 TO BINARY FILE HEADS FROM KSTP 1 AND KPER 2

 SFR-1 SETTING BUDGET TERMS FOR KSTP 2602 AND KPER 2 TO BUDGET FILE TERMS FROM KSTP 1 AND KPER 2

end timestep


start timestep kper="2" kstp="2603" mode="normal"


 FMI SETTING BUDGET TERMS FOR KSTP 2603 AND KPER 2 TO BUDGET FILE TERMS FROM KSTP 1 AND KPER 2

 FMI SETTING HEAD FOR KSTP 2603 AND KPER 2 TO BINARY FILE HEADS FROM KSTP 1 AND KPER 2

 SFR-1 SETTING BUDGET TERMS FOR KSTP 2603 AND KPER 2 TO BUDGET FILE TERMS FROM KSTP 1 AND KPER 2

end timestep


start timestep kper="2" kstp="2604" mode="normal"


 FMI SETTING BUDGET TERMS FOR KSTP 2604 AND KPER 2 TO BUDGET FILE TERMS FROM KSTP 1 AND KPER 2

 FMI SETTING HEAD FOR KSTP 2604 AND KPER 2 TO BINARY FILE HEADS FROM KSTP 1 AND KPER 2

 SFR-1 SETTING BUDGET TERMS FOR KSTP 2604 AND KPER 2 TO BUDGET FILE TERMS FROM KSTP 1 AND KPER 2

end timestep


start timestep kper="2" kstp="2605" mode="normal"


 FMI SETTING BUDGET TERMS FOR KSTP 2605 AND KPER 2 TO BUDGET FILE TERMS FROM KSTP 1 AND KPER 2

 FMI SETTING HEAD FOR KSTP 2605 AND KPER 2 TO BINARY FILE HEADS FROM KSTP 1 AND KPER 2

 SFR-1 SETTING BUDGET TERMS FOR KSTP 2605 AND KPER 2 TO BUDGET FILE TERMS FROM KSTP 1 AND KPER 2

end timestep


start timestep kper="2" kstp="2606" mode="normal"


 FMI SETTING BUDGET TERMS FOR KSTP 2606 AND KPER 2 TO BUDGET FILE TERMS FROM KSTP 1 AND KPER 2

 FMI SETTING HEAD FOR KSTP 2606 AND KPER 2 TO BINARY FILE HEADS FROM KSTP 1 AND KPER 2

 SFR-1 SETTING BUDGET TERMS FOR KSTP 2606 AND KPER 2 TO BUDGET FILE TERMS FROM KSTP 1 AND KPER 2

end timestep


start timestep kper="2" kstp="2607" mode="normal"


 FMI SETTING BUDGET TERMS FOR KSTP 2607 AND KPER 2 TO BUDGET FILE TERMS FROM KSTP 1 AND KPER 2

 FMI SETTING HEAD FOR KSTP 2607 AND KPER 2 TO BINARY FILE HEADS FROM KSTP 1 AND KPER 2

 SFR-1 SETTING BUDGET TERMS FOR KSTP 2607 AND KPER 2 TO BUDGET FILE TERMS FROM KSTP 1 AND KPER 2

end timestep


start timestep kper="2" kstp="2608" mode="normal"


 FMI SETTING BUDGET TERMS FOR KSTP 2608 AND KPER 2 TO BUDGET FILE TERMS FROM KSTP 1 AND KPER 2

 FMI SETTING HEAD FOR KSTP 2608 AND KPER 2 TO BINARY FILE HEADS FROM KSTP 1 AND KPER 2

 SFR-1 SETTING BUDGET TERMS FOR KSTP 2608 AND KPER 2 TO BUDGET FILE TERMS FROM KSTP 1 AND KPER 2

end timestep


start timestep kper="2" kstp="2609" mode="normal"


 FMI SETTING BUDGET TERMS FOR KSTP 2609 AND KPER 2 TO BUDGET FILE TERMS FROM KSTP 1 AND KPER 2

 FMI SETTING HEAD FOR KSTP 2609 AND KPER 2 TO BINARY FILE HEADS FROM KSTP 1 AND KPER 2

 SFR-1 SETTING BUDGET TERMS FOR KSTP 2609 AND KPER 2 TO BUDGET FILE TERMS FROM KSTP 1 AND KPER 2

end timestep


start timestep kper="2" kstp="2610" mode="normal"


 FMI SETTING BUDGET TERMS FOR KSTP 2610 AND KPER 2 TO BUDGET FILE TERMS FROM KSTP 1 AND KPER 2

 FMI SETTING HEAD FOR KSTP 2610 AND KPER 2 TO BINARY FILE HEADS FROM KSTP 1 AND KPER 2

 SFR-1 SETTING BUDGET TERMS FOR KSTP 2610 AND KPER 2 TO BUDGET FILE TERMS FROM KSTP 1 AND KPER 2

 CONCENTRATION WILL BE SAVED ON UNIT 1024 AT END OF TIME STEP 2610, STRESS PERIOD    2

end timestep


start timestep kper="2" kstp="2611" mode="normal"


 FMI SETTING BUDGET TERMS FOR KSTP 2611 AND KPER 2 TO BUDGET FILE TERMS FROM KSTP 1 AND KPER 2

 FMI SETTING HEAD FOR KSTP 2611 AND KPER 2 TO BINARY FILE HEADS FROM KSTP 1 AND KPER 2

 SFR-1 SETTING BUDGET TERMS FOR KSTP 2611 AND KPER 2 TO BUDGET FILE TERMS FROM KSTP 1 AND KPER 2

end timestep


start timestep kper="2" kstp="2612" mode="normal"


 FMI SETTING BUDGET TERMS FOR KSTP 2612 AND KPER 2 TO BUDGET FILE TERMS FROM KSTP 1 AND KPER 2

 FMI SETTING HEAD FOR KSTP 2612 AND KPER 2 TO BINARY FILE HEADS FROM KSTP 1 AND KPER 2

 SFR-1 SETTING BUDGET TERMS FOR KSTP 2612 AND KPER 2 TO BUDGET FILE TERMS FROM KSTP 1 AND KPER 2

end timestep


start timestep kper="2" kstp="2613" mode="normal"


 FMI SETTING BUDGET TERMS FOR KSTP 2613 AND KPER 2 TO BUDGET FILE TERMS FROM KSTP 1 AND KPER 2

 FMI SETTING HEAD FOR KSTP 2613 AND KPER 2 TO BINARY FILE HEADS FROM KSTP 1 AND KPER 2

 SFR-1 SETTING BUDGET TERMS FOR KSTP 2613 AND KPER 2 TO BUDGET FILE TERMS FROM KSTP 1 AND KPER 2

end timestep


start timestep kper="2" kstp="2614" mode="normal"


 FMI SETTING BUDGET TERMS FOR KSTP 2614 AND KPER 2 TO BUDGET FILE TERMS FROM KSTP 1 AND KPER 2

 FMI SETTING HEAD FOR KSTP 2614 AND KPER 2 TO BINARY FILE HEADS FROM KSTP 1 AND KPER 2

 SFR-1 SETTING BUDGET TERMS FOR KSTP 2614 AND KPER 2 TO BUDGET FILE TERMS FROM KSTP 1 AND KPER 2

end timestep


start timestep kper="2" kstp="2615" mode="normal"


 FMI SETTING BUDGET TERMS FOR KSTP 2615 AND KPER 2 TO BUDGET FILE TERMS FROM KSTP 1 AND KPER 2

 FMI SETTING HEAD FOR KSTP 2615 AND KPER 2 TO BINARY FILE HEADS FROM KSTP 1 AND KPER 2

 SFR-1 SETTING BUDGET TERMS FOR KSTP 2615 AND KPER 2 TO BUDGET FILE TERMS FROM KSTP 1 AND KPER 2

end timestep


start timestep kper="2" kstp="2616" mode="normal"


 FMI SETTING BUDGET TERMS FOR KSTP 2616 AND KPER 2 TO BUDGET FILE TERMS FROM KSTP 1 AND KPER 2

 FMI SETTING HEAD FOR KSTP 2616 AND KPER 2 TO BINARY FILE HEADS FROM KSTP 1 AND KPER 2

 SFR-1 SETTING BUDGET TERMS FOR KSTP 2616 AND KPER 2 TO BUDGET FILE TERMS FROM KSTP 1 AND KPER 2

end timestep


start timestep kper="2" kstp="2617" mode="normal"


 FMI SETTING BUDGET TERMS FOR KSTP 2617 AND KPER 2 TO BUDGET FILE TERMS FROM KSTP 1 AND KPER 2

 FMI SETTING HEAD FOR KSTP 2617 AND KPER 2 TO BINARY FILE HEADS FROM KSTP 1 AND KPER 2

 SFR-1 SETTING BUDGET TERMS FOR KSTP 2617 AND KPER 2 TO BUDGET FILE TERMS FROM KSTP 1 AND KPER 2

end timestep


start timestep kper="2" kstp="2618" mode="normal"


 FMI SETTING BUDGET TERMS FOR KSTP 2618 AND KPER 2 TO BUDGET FILE TERMS FROM KSTP 1 AND KPER 2

 FMI SETTING HEAD FOR KSTP 2618 AND KPER 2 TO BINARY FILE HEADS FROM KSTP 1 AND KPER 2

 SFR-1 SETTING BUDGET TERMS FOR KSTP 2618 AND KPER 2 TO BUDGET FILE TERMS FROM KSTP 1 AND KPER 2

end timestep


start timestep kper="2" kstp="2619" mode="normal"


 FMI SETTING BUDGET TERMS FOR KSTP 2619 AND KPER 2 TO BUDGET FILE TERMS FROM KSTP 1 AND KPER 2

 FMI SETTING HEAD FOR KSTP 2619 AND KPER 2 TO BINARY FILE HEADS FROM KSTP 1 AND KPER 2

 SFR-1 SETTING BUDGET TERMS FOR KSTP 2619 AND KPER 2 TO BUDGET FILE TERMS FROM KSTP 1 AND KPER 2

end timestep


start timestep kper="2" kstp="2620" mode="normal"


 FMI SETTING BUDGET TERMS FOR KSTP 2620 AND KPER 2 TO BUDGET FILE TERMS FROM KSTP 1 AND KPER 2

 FMI SETTING HEAD FOR KSTP 2620 AND KPER 2 TO BINARY FILE HEADS FROM KSTP 1 AND KPER 2

 SFR-1 SETTING BUDGET TERMS FOR KSTP 2620 AND KPER 2 TO BUDGET FILE TERMS FROM KSTP 1 AND KPER 2

 CONCENTRATION WILL BE SAVED ON UNIT 1024 AT END OF TIME STEP 2620, STRESS PERIOD    2

end timestep


start timestep kper="2" kstp="2621" mode="normal"


 FMI SETTING BUDGET TERMS FOR KSTP 2621 AND KPER 2 TO BUDGET FILE TERMS FROM KSTP 1 AND KPER 2

 FMI SETTING HEAD FOR KSTP 2621 AND KPER 2 TO BINARY FILE HEADS FROM KSTP 1 AND KPER 2

 SFR-1 SETTING BUDGET TERMS FOR KSTP 2621 AND KPER 2 TO BUDGET FILE TERMS FROM KSTP 1 AND KPER 2

end timestep


start timestep kper="2" kstp="2622" mode="normal"


 FMI SETTING BUDGET TERMS FOR KSTP 2622 AND KPER 2 TO BUDGET FILE TERMS FROM KSTP 1 AND KPER 2

 FMI SETTING HEAD FOR KSTP 2622 AND KPER 2 TO BINARY FILE HEADS FROM KSTP 1 AND KPER 2

 SFR-1 SETTING BUDGET TERMS FOR KSTP 2622 AND KPER 2 TO BUDGET FILE TERMS FROM KSTP 1 AND KPER 2

end timestep


start timestep kper="2" kstp="2623" mode="normal"


 FMI SETTING BUDGET TERMS FOR KSTP 2623 AND KPER 2 TO BUDGET FILE TERMS FROM KSTP 1 AND KPER 2

 FMI SETTING HEAD FOR KSTP 2623 AND KPER 2 TO BINARY FILE HEADS FROM KSTP 1 AND KPER 2

 SFR-1 SETTING BUDGET TERMS FOR KSTP 2623 AND KPER 2 TO BUDGET FILE TERMS FROM KSTP 1 AND KPER 2

end timestep


start timestep kper="2" kstp="2624" mode="normal"


 FMI SETTING BUDGET TERMS FOR KSTP 2624 AND KPER 2 TO BUDGET FILE TERMS FROM KSTP 1 AND KPER 2

 FMI SETTING HEAD FOR KSTP 2624 AND KPER 2 TO BINARY FILE HEADS FROM KSTP 1 AND KPER 2

 SFR-1 SETTING BUDGET TERMS FOR KSTP 2624 AND KPER 2 TO BUDGET FILE TERMS FROM KSTP 1 AND KPER 2

end timestep


start timestep kper="2" kstp="2625" mode="normal"


 FMI SETTING BUDGET TERMS FOR KSTP 2625 AND KPER 2 TO BUDGET FILE TERMS FROM KSTP 1 AND KPER 2

 FMI SETTING HEAD FOR KSTP 2625 AND KPER 2 TO BINARY FILE HEADS FROM KSTP 1 AND KPER 2

 SFR-1 SETTING BUDGET TERMS FOR KSTP 2625 AND KPER 2 TO BUDGET FILE TERMS FROM KSTP 1 AND KPER 2

end timestep


start timestep kper="2" kstp="2626" mode="normal"


 FMI SETTING BUDGET TERMS FOR KSTP 2626 AND KPER 2 TO BUDGET FILE TERMS FROM KSTP 1 AND KPER 2

 FMI SETTING HEAD FOR KSTP 2626 AND KPER 2 TO BINARY FILE HEADS FROM KSTP 1 AND KPER 2

 SFR-1 SETTING BUDGET TERMS FOR KSTP 2626 AND KPER 2 TO BUDGET FILE TERMS FROM KSTP 1 AND KPER 2

end timestep


start timestep kper="2" kstp="2627" mode="normal"


 FMI SETTING BUDGET TERMS FOR KSTP 2627 AND KPER 2 TO BUDGET FILE TERMS FROM KSTP 1 AND KPER 2

 FMI SETTING HEAD FOR KSTP 2627 AND KPER 2 TO BINARY FILE HEADS FROM KSTP 1 AND KPER 2

 SFR-1 SETTING BUDGET TERMS FOR KSTP 2627 AND KPER 2 TO BUDGET FILE TERMS FROM KSTP 1 AND KPER 2

end timestep


start timestep kper="2" kstp="2628" mode="normal"


 FMI SETTING BUDGET TERMS FOR KSTP 2628 AND KPER 2 TO BUDGET FILE TERMS FROM KSTP 1 AND KPER 2

 FMI SETTING HEAD FOR KSTP 2628 AND KPER 2 TO BINARY FILE HEADS FROM KSTP 1 AND KPER 2

 SFR-1 SETTING BUDGET TERMS FOR KSTP 2628 AND KPER 2 TO BUDGET FILE TERMS FROM KSTP 1 AND KPER 2

end timestep


start timestep kper="2" kstp="2629" mode="normal"


 FMI SETTING BUDGET TERMS FOR KSTP 2629 AND KPER 2 TO BUDGET FILE TERMS FROM KSTP 1 AND KPER 2

 FMI SETTING HEAD FOR KSTP 2629 AND KPER 2 TO BINARY FILE HEADS FROM KSTP 1 AND KPER 2

 SFR-1 SETTING BUDGET TERMS FOR KSTP 2629 AND KPER 2 TO BUDGET FILE TERMS FROM KSTP 1 AND KPER 2

end timestep


start timestep kper="2" kstp="2630" mode="normal"


 FMI SETTING BUDGET TERMS FOR KSTP 2630 AND KPER 2 TO BUDGET FILE TERMS FROM KSTP 1 AND KPER 2

 FMI SETTING HEAD FOR KSTP 2630 AND KPER 2 TO BINARY FILE HEADS FROM KSTP 1 AND KPER 2

 SFR-1 SETTING BUDGET TERMS FOR KSTP 2630 AND KPER 2 TO BUDGET FILE TERMS FROM KSTP 1 AND KPER 2

 CONCENTRATION WILL BE SAVED ON UNIT 1024 AT END OF TIME STEP 2630, STRESS PERIOD    2

end timestep


start timestep kper="2" kstp="2631" mode="normal"


 FMI SETTING BUDGET TERMS FOR KSTP 2631 AND KPER 2 TO BUDGET FILE TERMS FROM KSTP 1 AND KPER 2

 FMI SETTING HEAD FOR KSTP 2631 AND KPER 2 TO BINARY FILE HEADS FROM KSTP 1 AND KPER 2

 SFR-1 SETTING BUDGET TERMS FOR KSTP 2631 AND KPER 2 TO BUDGET FILE TERMS FROM KSTP 1 AND KPER 2

end timestep


start timestep kper="2" kstp="2632" mode="normal"


 FMI SETTING BUDGET TERMS FOR KSTP 2632 AND KPER 2 TO BUDGET FILE TERMS FROM KSTP 1 AND KPER 2

 FMI SETTING HEAD FOR KSTP 2632 AND KPER 2 TO BINARY FILE HEADS FROM KSTP 1 AND KPER 2

 SFR-1 SETTING BUDGET TERMS FOR KSTP 2632 AND KPER 2 TO BUDGET FILE TERMS FROM KSTP 1 AND KPER 2

end timestep


start timestep kper="2" kstp="2633" mode="normal"


 FMI SETTING BUDGET TERMS FOR KSTP 2633 AND KPER 2 TO BUDGET FILE TERMS FROM KSTP 1 AND KPER 2

 FMI SETTING HEAD FOR KSTP 2633 AND KPER 2 TO BINARY FILE HEADS FROM KSTP 1 AND KPER 2

 SFR-1 SETTING BUDGET TERMS FOR KSTP 2633 AND KPER 2 TO BUDGET FILE TERMS FROM KSTP 1 AND KPER 2

end timestep


start timestep kper="2" kstp="2634" mode="normal"


 FMI SETTING BUDGET TERMS FOR KSTP 2634 AND KPER 2 TO BUDGET FILE TERMS FROM KSTP 1 AND KPER 2

 FMI SETTING HEAD FOR KSTP 2634 AND KPER 2 TO BINARY FILE HEADS FROM KSTP 1 AND KPER 2

 SFR-1 SETTING BUDGET TERMS FOR KSTP 2634 AND KPER 2 TO BUDGET FILE TERMS FROM KSTP 1 AND KPER 2

end timestep


start timestep kper="2" kstp="2635" mode="normal"


 FMI SETTING BUDGET TERMS FOR KSTP 2635 AND KPER 2 TO BUDGET FILE TERMS FROM KSTP 1 AND KPER 2

 FMI SETTING HEAD FOR KSTP 2635 AND KPER 2 TO BINARY FILE HEADS FROM KSTP 1 AND KPER 2

 SFR-1 SETTING BUDGET TERMS FOR KSTP 2635 AND KPER 2 TO BUDGET FILE TERMS FROM KSTP 1 AND KPER 2

end timestep


start timestep kper="2" kstp="2636" mode="normal"


 FMI SETTING BUDGET TERMS FOR KSTP 2636 AND KPER 2 TO BUDGET FILE TERMS FROM KSTP 1 AND KPER 2

 FMI SETTING HEAD FOR KSTP 2636 AND KPER 2 TO BINARY FILE HEADS FROM KSTP 1 AND KPER 2

 SFR-1 SETTING BUDGET TERMS FOR KSTP 2636 AND KPER 2 TO BUDGET FILE TERMS FROM KSTP 1 AND KPER 2

end timestep


start timestep kper="2" kstp="2637" mode="normal"


 FMI SETTING BUDGET TERMS FOR KSTP 2637 AND KPER 2 TO BUDGET FILE TERMS FROM KSTP 1 AND KPER 2

 FMI SETTING HEAD FOR KSTP 2637 AND KPER 2 TO BINARY FILE HEADS FROM KSTP 1 AND KPER 2

 SFR-1 SETTING BUDGET TERMS FOR KSTP 2637 AND KPER 2 TO BUDGET FILE TERMS FROM KSTP 1 AND KPER 2

end timestep


start timestep kper="2" kstp="2638" mode="normal"


 FMI SETTING BUDGET TERMS FOR KSTP 2638 AND KPER 2 TO BUDGET FILE TERMS FROM KSTP 1 AND KPER 2

 FMI SETTING HEAD FOR KSTP 2638 AND KPER 2 TO BINARY FILE HEADS FROM KSTP 1 AND KPER 2

 SFR-1 SETTING BUDGET TERMS FOR KSTP 2638 AND KPER 2 TO BUDGET FILE TERMS FROM KSTP 1 AND KPER 2

end timestep


start timestep kper="2" kstp="2639" mode="normal"


 FMI SETTING BUDGET TERMS FOR KSTP 2639 AND KPER 2 TO BUDGET FILE TERMS FROM KSTP 1 AND KPER 2

 FMI SETTING HEAD FOR KSTP 2639 AND KPER 2 TO BINARY FILE HEADS FROM KSTP 1 AND KPER 2

 SFR-1 SETTING BUDGET TERMS FOR KSTP 2639 AND KPER 2 TO BUDGET FILE TERMS FROM KSTP 1 AND KPER 2

end timestep


start timestep kper="2" kstp="2640" mode="normal"


 FMI SETTING BUDGET TERMS FOR KSTP 2640 AND KPER 2 TO BUDGET FILE TERMS FROM KSTP 1 AND KPER 2

 FMI SETTING HEAD FOR KSTP 2640 AND KPER 2 TO BINARY FILE HEADS FROM KSTP 1 AND KPER 2

 SFR-1 SETTING BUDGET TERMS FOR KSTP 2640 AND KPER 2 TO BUDGET FILE TERMS FROM KSTP 1 AND KPER 2

 CONCENTRATION WILL BE SAVED ON UNIT 1024 AT END OF TIME STEP 2640, STRESS PERIOD    2

end timestep


start timestep kper="2" kstp="2641" mode="normal"


 FMI SETTING BUDGET TERMS FOR KSTP 2641 AND KPER 2 TO BUDGET FILE TERMS FROM KSTP 1 AND KPER 2

 FMI SETTING HEAD FOR KSTP 2641 AND KPER 2 TO BINARY FILE HEADS FROM KSTP 1 AND KPER 2

 SFR-1 SETTING BUDGET TERMS FOR KSTP 2641 AND KPER 2 TO BUDGET FILE TERMS FROM KSTP 1 AND KPER 2

end timestep


start timestep kper="2" kstp="2642" mode="normal"


 FMI SETTING BUDGET TERMS FOR KSTP 2642 AND KPER 2 TO BUDGET FILE TERMS FROM KSTP 1 AND KPER 2

 FMI SETTING HEAD FOR KSTP 2642 AND KPER 2 TO BINARY FILE HEADS FROM KSTP 1 AND KPER 2

 SFR-1 SETTING BUDGET TERMS FOR KSTP 2642 AND KPER 2 TO BUDGET FILE TERMS FROM KSTP 1 AND KPER 2

end timestep


start timestep kper="2" kstp="2643" mode="normal"


 FMI SETTING BUDGET TERMS FOR KSTP 2643 AND KPER 2 TO BUDGET FILE TERMS FROM KSTP 1 AND KPER 2

 FMI SETTING HEAD FOR KSTP 2643 AND KPER 2 TO BINARY FILE HEADS FROM KSTP 1 AND KPER 2

 SFR-1 SETTING BUDGET TERMS FOR KSTP 2643 AND KPER 2 TO BUDGET FILE TERMS FROM KSTP 1 AND KPER 2

end timestep


start timestep kper="2" kstp="2644" mode="normal"


 FMI SETTING BUDGET TERMS FOR KSTP 2644 AND KPER 2 TO BUDGET FILE TERMS FROM KSTP 1 AND KPER 2

 FMI SETTING HEAD FOR KSTP 2644 AND KPER 2 TO BINARY FILE HEADS FROM KSTP 1 AND KPER 2

 SFR-1 SETTING BUDGET TERMS FOR KSTP 2644 AND KPER 2 TO BUDGET FILE TERMS FROM KSTP 1 AND KPER 2

end timestep


start timestep kper="2" kstp="2645" mode="normal"


 FMI SETTING BUDGET TERMS FOR KSTP 2645 AND KPER 2 TO BUDGET FILE TERMS FROM KSTP 1 AND KPER 2

 FMI SETTING HEAD FOR KSTP 2645 AND KPER 2 TO BINARY FILE HEADS FROM KSTP 1 AND KPER 2

 SFR-1 SETTING BUDGET TERMS FOR KSTP 2645 AND KPER 2 TO BUDGET FILE TERMS FROM KSTP 1 AND KPER 2

end timestep


start timestep kper="2" kstp="2646" mode="normal"


 FMI SETTING BUDGET TERMS FOR KSTP 2646 AND KPER 2 TO BUDGET FILE TERMS FROM KSTP 1 AND KPER 2

 FMI SETTING HEAD FOR KSTP 2646 AND KPER 2 TO BINARY FILE HEADS FROM KSTP 1 AND KPER 2

 SFR-1 SETTING BUDGET TERMS FOR KSTP 2646 AND KPER 2 TO BUDGET FILE TERMS FROM KSTP 1 AND KPER 2

end timestep


start timestep kper="2" kstp="2647" mode="normal"


 FMI SETTING BUDGET TERMS FOR KSTP 2647 AND KPER 2 TO BUDGET FILE TERMS FROM KSTP 1 AND KPER 2

 FMI SETTING HEAD FOR KSTP 2647 AND KPER 2 TO BINARY FILE HEADS FROM KSTP 1 AND KPER 2

 SFR-1 SETTING BUDGET TERMS FOR KSTP 2647 AND KPER 2 TO BUDGET FILE TERMS FROM KSTP 1 AND KPER 2

end timestep


start timestep kper="2" kstp="2648" mode="normal"


 FMI SETTING BUDGET TERMS FOR KSTP 2648 AND KPER 2 TO BUDGET FILE TERMS FROM KSTP 1 AND KPER 2

 FMI SETTING HEAD FOR KSTP 2648 AND KPER 2 TO BINARY FILE HEADS FROM KSTP 1 AND KPER 2

 SFR-1 SETTING BUDGET TERMS FOR KSTP 2648 AND KPER 2 TO BUDGET FILE TERMS FROM KSTP 1 AND KPER 2

end timestep


start timestep kper="2" kstp="2649" mode="normal"


 FMI SETTING BUDGET TERMS FOR KSTP 2649 AND KPER 2 TO BUDGET FILE TERMS FROM KSTP 1 AND KPER 2

 FMI SETTING HEAD FOR KSTP 2649 AND KPER 2 TO BINARY FILE HEADS FROM KSTP 1 AND KPER 2

 SFR-1 SETTING BUDGET TERMS FOR KSTP 2649 AND KPER 2 TO BUDGET FILE TERMS FROM KSTP 1 AND KPER 2

end timestep


start timestep kper="2" kstp="2650" mode="normal"


 FMI SETTING BUDGET TERMS FOR KSTP 2650 AND KPER 2 TO BUDGET FILE TERMS FROM KSTP 1 AND KPER 2

 FMI SETTING HEAD FOR KSTP 2650 AND KPER 2 TO BINARY FILE HEADS FROM KSTP 1 AND KPER 2

 SFR-1 SETTING BUDGET TERMS FOR KSTP 2650 AND KPER 2 TO BUDGET FILE TERMS FROM KSTP 1 AND KPER 2

 CONCENTRATION WILL BE SAVED ON UNIT 1024 AT END OF TIME STEP 2650, STRESS PERIOD    2

end timestep


start timestep kper="2" kstp="2651" mode="normal"


 FMI SETTING BUDGET TERMS FOR KSTP 2651 AND KPER 2 TO BUDGET FILE TERMS FROM KSTP 1 AND KPER 2

 FMI SETTING HEAD FOR KSTP 2651 AND KPER 2 TO BINARY FILE HEADS FROM KSTP 1 AND KPER 2

 SFR-1 SETTING BUDGET TERMS FOR KSTP 2651 AND KPER 2 TO BUDGET FILE TERMS FROM KSTP 1 AND KPER 2

end timestep


start timestep kper="2" kstp="2652" mode="normal"


 FMI SETTING BUDGET TERMS FOR KSTP 2652 AND KPER 2 TO BUDGET FILE TERMS FROM KSTP 1 AND KPER 2

 FMI SETTING HEAD FOR KSTP 2652 AND KPER 2 TO BINARY FILE HEADS FROM KSTP 1 AND KPER 2

 SFR-1 SETTING BUDGET TERMS FOR KSTP 2652 AND KPER 2 TO BUDGET FILE TERMS FROM KSTP 1 AND KPER 2

end timestep


start timestep kper="2" kstp="2653" mode="normal"


 FMI SETTING BUDGET TERMS FOR KSTP 2653 AND KPER 2 TO BUDGET FILE TERMS FROM KSTP 1 AND KPER 2

 FMI SETTING HEAD FOR KSTP 2653 AND KPER 2 TO BINARY FILE HEADS FROM KSTP 1 AND KPER 2

 SFR-1 SETTING BUDGET TERMS FOR KSTP 2653 AND KPER 2 TO BUDGET FILE TERMS FROM KSTP 1 AND KPER 2

end timestep


start timestep kper="2" kstp="2654" mode="normal"


 FMI SETTING BUDGET TERMS FOR KSTP 2654 AND KPER 2 TO BUDGET FILE TERMS FROM KSTP 1 AND KPER 2

 FMI SETTING HEAD FOR KSTP 2654 AND KPER 2 TO BINARY FILE HEADS FROM KSTP 1 AND KPER 2

 SFR-1 SETTING BUDGET TERMS FOR KSTP 2654 AND KPER 2 TO BUDGET FILE TERMS FROM KSTP 1 AND KPER 2

end timestep


start timestep kper="2" kstp="2655" mode="normal"


 FMI SETTING BUDGET TERMS FOR KSTP 2655 AND KPER 2 TO BUDGET FILE TERMS FROM KSTP 1 AND KPER 2

 FMI SETTING HEAD FOR KSTP 2655 AND KPER 2 TO BINARY FILE HEADS FROM KSTP 1 AND KPER 2

 SFR-1 SETTING BUDGET TERMS FOR KSTP 2655 AND KPER 2 TO BUDGET FILE TERMS FROM KSTP 1 AND KPER 2

end timestep


start timestep kper="2" kstp="2656" mode="normal"


 FMI SETTING BUDGET TERMS FOR KSTP 2656 AND KPER 2 TO BUDGET FILE TERMS FROM KSTP 1 AND KPER 2

 FMI SETTING HEAD FOR KSTP 2656 AND KPER 2 TO BINARY FILE HEADS FROM KSTP 1 AND KPER 2

 SFR-1 SETTING BUDGET TERMS FOR KSTP 2656 AND KPER 2 TO BUDGET FILE TERMS FROM KSTP 1 AND KPER 2

end timestep


start timestep kper="2" kstp="2657" mode="normal"


 FMI SETTING BUDGET TERMS FOR KSTP 2657 AND KPER 2 TO BUDGET FILE TERMS FROM KSTP 1 AND KPER 2

 FMI SETTING HEAD FOR KSTP 2657 AND KPER 2 TO BINARY FILE HEADS FROM KSTP 1 AND KPER 2

 SFR-1 SETTING BUDGET TERMS FOR KSTP 2657 AND KPER 2 TO BUDGET FILE TERMS FROM KSTP 1 AND KPER 2

end timestep


start timestep kper="2" kstp="2658" mode="normal"


 FMI SETTING BUDGET TERMS FOR KSTP 2658 AND KPER 2 TO BUDGET FILE TERMS FROM KSTP 1 AND KPER 2

 FMI SETTING HEAD FOR KSTP 2658 AND KPER 2 TO BINARY FILE HEADS FROM KSTP 1 AND KPER 2

 SFR-1 SETTING BUDGET TERMS FOR KSTP 2658 AND KPER 2 TO BUDGET FILE TERMS FROM KSTP 1 AND KPER 2

end timestep


start timestep kper="2" kstp="2659" mode="normal"


 FMI SETTING BUDGET TERMS FOR KSTP 2659 AND KPER 2 TO BUDGET FILE TERMS FROM KSTP 1 AND KPER 2

 FMI SETTING HEAD FOR KSTP 2659 AND KPER 2 TO BINARY FILE HEADS FROM KSTP 1 AND KPER 2

 SFR-1 SETTING BUDGET TERMS FOR KSTP 2659 AND KPER 2 TO BUDGET FILE TERMS FROM KSTP 1 AND KPER 2

end timestep


start timestep kper="2" kstp="2660" mode="normal"


 FMI SETTING BUDGET TERMS FOR KSTP 2660 AND KPER 2 TO BUDGET FILE TERMS FROM KSTP 1 AND KPER 2

 FMI SETTING HEAD FOR KSTP 2660 AND KPER 2 TO BINARY FILE HEADS FROM KSTP 1 AND KPER 2

 SFR-1 SETTING BUDGET TERMS FOR KSTP 2660 AND KPER 2 TO BUDGET FILE TERMS FROM KSTP 1 AND KPER 2

 CONCENTRATION WILL BE SAVED ON UNIT 1024 AT END OF TIME STEP 2660, STRESS PERIOD    2

end timestep


start timestep kper="2" kstp="2661" mode="normal"


 FMI SETTING BUDGET TERMS FOR KSTP 2661 AND KPER 2 TO BUDGET FILE TERMS FROM KSTP 1 AND KPER 2

 FMI SETTING HEAD FOR KSTP 2661 AND KPER 2 TO BINARY FILE HEADS FROM KSTP 1 AND KPER 2

 SFR-1 SETTING BUDGET TERMS FOR KSTP 2661 AND KPER 2 TO BUDGET FILE TERMS FROM KSTP 1 AND KPER 2

end timestep


start timestep kper="2" kstp="2662" mode="normal"


 FMI SETTING BUDGET TERMS FOR KSTP 2662 AND KPER 2 TO BUDGET FILE TERMS FROM KSTP 1 AND KPER 2

 FMI SETTING HEAD FOR KSTP 2662 AND KPER 2 TO BINARY FILE HEADS FROM KSTP 1 AND KPER 2

 SFR-1 SETTING BUDGET TERMS FOR KSTP 2662 AND KPER 2 TO BUDGET FILE TERMS FROM KSTP 1 AND KPER 2

end timestep


start timestep kper="2" kstp="2663" mode="normal"


 FMI SETTING BUDGET TERMS FOR KSTP 2663 AND KPER 2 TO BUDGET FILE TERMS FROM KSTP 1 AND KPER 2

 FMI SETTING HEAD FOR KSTP 2663 AND KPER 2 TO BINARY FILE HEADS FROM KSTP 1 AND KPER 2

 SFR-1 SETTING BUDGET TERMS FOR KSTP 2663 AND KPER 2 TO BUDGET FILE TERMS FROM KSTP 1 AND KPER 2

end timestep


start timestep kper="2" kstp="2664" mode="normal"


 FMI SETTING BUDGET TERMS FOR KSTP 2664 AND KPER 2 TO BUDGET FILE TERMS FROM KSTP 1 AND KPER 2

 FMI SETTING HEAD FOR KSTP 2664 AND KPER 2 TO BINARY FILE HEADS FROM KSTP 1 AND KPER 2

 SFR-1 SETTING BUDGET TERMS FOR KSTP 2664 AND KPER 2 TO BUDGET FILE TERMS FROM KSTP 1 AND KPER 2

end timestep


start timestep kper="2" kstp="2665" mode="normal"


 FMI SETTING BUDGET TERMS FOR KSTP 2665 AND KPER 2 TO BUDGET FILE TERMS FROM KSTP 1 AND KPER 2

 FMI SETTING HEAD FOR KSTP 2665 AND KPER 2 TO BINARY FILE HEADS FROM KSTP 1 AND KPER 2

 SFR-1 SETTING BUDGET TERMS FOR KSTP 2665 AND KPER 2 TO BUDGET FILE TERMS FROM KSTP 1 AND KPER 2

end timestep


start timestep kper="2" kstp="2666" mode="normal"


 FMI SETTING BUDGET TERMS FOR KSTP 2666 AND KPER 2 TO BUDGET FILE TERMS FROM KSTP 1 AND KPER 2

 FMI SETTING HEAD FOR KSTP 2666 AND KPER 2 TO BINARY FILE HEADS FROM KSTP 1 AND KPER 2

 SFR-1 SETTING BUDGET TERMS FOR KSTP 2666 AND KPER 2 TO BUDGET FILE TERMS FROM KSTP 1 AND KPER 2

end timestep


start timestep kper="2" kstp="2667" mode="normal"


 FMI SETTING BUDGET TERMS FOR KSTP 2667 AND KPER 2 TO BUDGET FILE TERMS FROM KSTP 1 AND KPER 2

 FMI SETTING HEAD FOR KSTP 2667 AND KPER 2 TO BINARY FILE HEADS FROM KSTP 1 AND KPER 2

 SFR-1 SETTING BUDGET TERMS FOR KSTP 2667 AND KPER 2 TO BUDGET FILE TERMS FROM KSTP 1 AND KPER 2

end timestep


start timestep kper="2" kstp="2668" mode="normal"


 FMI SETTING BUDGET TERMS FOR KSTP 2668 AND KPER 2 TO BUDGET FILE TERMS FROM KSTP 1 AND KPER 2

 FMI SETTING HEAD FOR KSTP 2668 AND KPER 2 TO BINARY FILE HEADS FROM KSTP 1 AND KPER 2

 SFR-1 SETTING BUDGET TERMS FOR KSTP 2668 AND KPER 2 TO BUDGET FILE TERMS FROM KSTP 1 AND KPER 2

end timestep


start timestep kper="2" kstp="2669" mode="normal"


 FMI SETTING BUDGET TERMS FOR KSTP 2669 AND KPER 2 TO BUDGET FILE TERMS FROM KSTP 1 AND KPER 2

 FMI SETTING HEAD FOR KSTP 2669 AND KPER 2 TO BINARY FILE HEADS FROM KSTP 1 AND KPER 2

 SFR-1 SETTING BUDGET TERMS FOR KSTP 2669 AND KPER 2 TO BUDGET FILE TERMS FROM KSTP 1 AND KPER 2

end timestep


start timestep kper="2" kstp="2670" mode="normal"


 FMI SETTING BUDGET TERMS FOR KSTP 2670 AND KPER 2 TO BUDGET FILE TERMS FROM KSTP 1 AND KPER 2

 FMI SETTING HEAD FOR KSTP 2670 AND KPER 2 TO BINARY FILE HEADS FROM KSTP 1 AND KPER 2

 SFR-1 SETTING BUDGET TERMS FOR KSTP 2670 AND KPER 2 TO BUDGET FILE TERMS FROM KSTP 1 AND KPER 2

 CONCENTRATION WILL BE SAVED ON UNIT 1024 AT END OF TIME STEP 2670, STRESS PERIOD    2

end timestep


start timestep kper="2" kstp="2671" mode="normal"


 FMI SETTING BUDGET TERMS FOR KSTP 2671 AND KPER 2 TO BUDGET FILE TERMS FROM KSTP 1 AND KPER 2

 FMI SETTING HEAD FOR KSTP 2671 AND KPER 2 TO BINARY FILE HEADS FROM KSTP 1 AND KPER 2

 SFR-1 SETTING BUDGET TERMS FOR KSTP 2671 AND KPER 2 TO BUDGET FILE TERMS FROM KSTP 1 AND KPER 2

end timestep


start timestep kper="2" kstp="2672" mode="normal"


 FMI SETTING BUDGET TERMS FOR KSTP 2672 AND KPER 2 TO BUDGET FILE TERMS FROM KSTP 1 AND KPER 2

 FMI SETTING HEAD FOR KSTP 2672 AND KPER 2 TO BINARY FILE HEADS FROM KSTP 1 AND KPER 2

 SFR-1 SETTING BUDGET TERMS FOR KSTP 2672 AND KPER 2 TO BUDGET FILE TERMS FROM KSTP 1 AND KPER 2

end timestep


start timestep kper="2" kstp="2673" mode="normal"


 FMI SETTING BUDGET TERMS FOR KSTP 2673 AND KPER 2 TO BUDGET FILE TERMS FROM KSTP 1 AND KPER 2

 FMI SETTING HEAD FOR KSTP 2673 AND KPER 2 TO BINARY FILE HEADS FROM KSTP 1 AND KPER 2

 SFR-1 SETTING BUDGET TERMS FOR KSTP 2673 AND KPER 2 TO BUDGET FILE TERMS FROM KSTP 1 AND KPER 2

end timestep


start timestep kper="2" kstp="2674" mode="normal"


 FMI SETTING BUDGET TERMS FOR KSTP 2674 AND KPER 2 TO BUDGET FILE TERMS FROM KSTP 1 AND KPER 2

 FMI SETTING HEAD FOR KSTP 2674 AND KPER 2 TO BINARY FILE HEADS FROM KSTP 1 AND KPER 2

 SFR-1 SETTING BUDGET TERMS FOR KSTP 2674 AND KPER 2 TO BUDGET FILE TERMS FROM KSTP 1 AND KPER 2

end timestep


start timestep kper="2" kstp="2675" mode="normal"


 FMI SETTING BUDGET TERMS FOR KSTP 2675 AND KPER 2 TO BUDGET FILE TERMS FROM KSTP 1 AND KPER 2

 FMI SETTING HEAD FOR KSTP 2675 AND KPER 2 TO BINARY FILE HEADS FROM KSTP 1 AND KPER 2

 SFR-1 SETTING BUDGET TERMS FOR KSTP 2675 AND KPER 2 TO BUDGET FILE TERMS FROM KSTP 1 AND KPER 2

end timestep


start timestep kper="2" kstp="2676" mode="normal"


 FMI SETTING BUDGET TERMS FOR KSTP 2676 AND KPER 2 TO BUDGET FILE TERMS FROM KSTP 1 AND KPER 2

 FMI SETTING HEAD FOR KSTP 2676 AND KPER 2 TO BINARY FILE HEADS FROM KSTP 1 AND KPER 2

 SFR-1 SETTING BUDGET TERMS FOR KSTP 2676 AND KPER 2 TO BUDGET FILE TERMS FROM KSTP 1 AND KPER 2

end timestep


start timestep kper="2" kstp="2677" mode="normal"


 FMI SETTING BUDGET TERMS FOR KSTP 2677 AND KPER 2 TO BUDGET FILE TERMS FROM KSTP 1 AND KPER 2

 FMI SETTING HEAD FOR KSTP 2677 AND KPER 2 TO BINARY FILE HEADS FROM KSTP 1 AND KPER 2

 SFR-1 SETTING BUDGET TERMS FOR KSTP 2677 AND KPER 2 TO BUDGET FILE TERMS FROM KSTP 1 AND KPER 2

end timestep


start timestep kper="2" kstp="2678" mode="normal"


 FMI SETTING BUDGET TERMS FOR KSTP 2678 AND KPER 2 TO BUDGET FILE TERMS FROM KSTP 1 AND KPER 2

 FMI SETTING HEAD FOR KSTP 2678 AND KPER 2 TO BINARY FILE HEADS FROM KSTP 1 AND KPER 2

 SFR-1 SETTING BUDGET TERMS FOR KSTP 2678 AND KPER 2 TO BUDGET FILE TERMS FROM KSTP 1 AND KPER 2

end timestep


start timestep kper="2" kstp="2679" mode="normal"


 FMI SETTING BUDGET TERMS FOR KSTP 2679 AND KPER 2 TO BUDGET FILE TERMS FROM KSTP 1 AND KPER 2

 FMI SETTING HEAD FOR KSTP 2679 AND KPER 2 TO BINARY FILE HEADS FROM KSTP 1 AND KPER 2

 SFR-1 SETTING BUDGET TERMS FOR KSTP 2679 AND KPER 2 TO BUDGET FILE TERMS FROM KSTP 1 AND KPER 2

end timestep


start timestep kper="2" kstp="2680" mode="normal"


 FMI SETTING BUDGET TERMS FOR KSTP 2680 AND KPER 2 TO BUDGET FILE TERMS FROM KSTP 1 AND KPER 2

 FMI SETTING HEAD FOR KSTP 2680 AND KPER 2 TO BINARY FILE HEADS FROM KSTP 1 AND KPER 2

 SFR-1 SETTING BUDGET TERMS FOR KSTP 2680 AND KPER 2 TO BUDGET FILE TERMS FROM KSTP 1 AND KPER 2

 CONCENTRATION WILL BE SAVED ON UNIT 1024 AT END OF TIME STEP 2680, STRESS PERIOD    2

end timestep


start timestep kper="2" kstp="2681" mode="normal"


 FMI SETTING BUDGET TERMS FOR KSTP 2681 AND KPER 2 TO BUDGET FILE TERMS FROM KSTP 1 AND KPER 2

 FMI SETTING HEAD FOR KSTP 2681 AND KPER 2 TO BINARY FILE HEADS FROM KSTP 1 AND KPER 2

 SFR-1 SETTING BUDGET TERMS FOR KSTP 2681 AND KPER 2 TO BUDGET FILE TERMS FROM KSTP 1 AND KPER 2

end timestep


start timestep kper="2" kstp="2682" mode="normal"


 FMI SETTING BUDGET TERMS FOR KSTP 2682 AND KPER 2 TO BUDGET FILE TERMS FROM KSTP 1 AND KPER 2

 FMI SETTING HEAD FOR KSTP 2682 AND KPER 2 TO BINARY FILE HEADS FROM KSTP 1 AND KPER 2

 SFR-1 SETTING BUDGET TERMS FOR KSTP 2682 AND KPER 2 TO BUDGET FILE TERMS FROM KSTP 1 AND KPER 2

end timestep


start timestep kper="2" kstp="2683" mode="normal"


 FMI SETTING BUDGET TERMS FOR KSTP 2683 AND KPER 2 TO BUDGET FILE TERMS FROM KSTP 1 AND KPER 2

 FMI SETTING HEAD FOR KSTP 2683 AND KPER 2 TO BINARY FILE HEADS FROM KSTP 1 AND KPER 2

 SFR-1 SETTING BUDGET TERMS FOR KSTP 2683 AND KPER 2 TO BUDGET FILE TERMS FROM KSTP 1 AND KPER 2

end timestep


start timestep kper="2" kstp="2684" mode="normal"


 FMI SETTING BUDGET TERMS FOR KSTP 2684 AND KPER 2 TO BUDGET FILE TERMS FROM KSTP 1 AND KPER 2

 FMI SETTING HEAD FOR KSTP 2684 AND KPER 2 TO BINARY FILE HEADS FROM KSTP 1 AND KPER 2

 SFR-1 SETTING BUDGET TERMS FOR KSTP 2684 AND KPER 2 TO BUDGET FILE TERMS FROM KSTP 1 AND KPER 2

end timestep


start timestep kper="2" kstp="2685" mode="normal"


 FMI SETTING BUDGET TERMS FOR KSTP 2685 AND KPER 2 TO BUDGET FILE TERMS FROM KSTP 1 AND KPER 2

 FMI SETTING HEAD FOR KSTP 2685 AND KPER 2 TO BINARY FILE HEADS FROM KSTP 1 AND KPER 2

 SFR-1 SETTING BUDGET TERMS FOR KSTP 2685 AND KPER 2 TO BUDGET FILE TERMS FROM KSTP 1 AND KPER 2

end timestep


start timestep kper="2" kstp="2686" mode="normal"


 FMI SETTING BUDGET TERMS FOR KSTP 2686 AND KPER 2 TO BUDGET FILE TERMS FROM KSTP 1 AND KPER 2

 FMI SETTING HEAD FOR KSTP 2686 AND KPER 2 TO BINARY FILE HEADS FROM KSTP 1 AND KPER 2

 SFR-1 SETTING BUDGET TERMS FOR KSTP 2686 AND KPER 2 TO BUDGET FILE TERMS FROM KSTP 1 AND KPER 2

end timestep


start timestep kper="2" kstp="2687" mode="normal"


 FMI SETTING BUDGET TERMS FOR KSTP 2687 AND KPER 2 TO BUDGET FILE TERMS FROM KSTP 1 AND KPER 2

 FMI SETTING HEAD FOR KSTP 2687 AND KPER 2 TO BINARY FILE HEADS FROM KSTP 1 AND KPER 2

 SFR-1 SETTING BUDGET TERMS FOR KSTP 2687 AND KPER 2 TO BUDGET FILE TERMS FROM KSTP 1 AND KPER 2

end timestep


start timestep kper="2" kstp="2688" mode="normal"


 FMI SETTING BUDGET TERMS FOR KSTP 2688 AND KPER 2 TO BUDGET FILE TERMS FROM KSTP 1 AND KPER 2

 FMI SETTING HEAD FOR KSTP 2688 AND KPER 2 TO BINARY FILE HEADS FROM KSTP 1 AND KPER 2

 SFR-1 SETTING BUDGET TERMS FOR KSTP 2688 AND KPER 2 TO BUDGET FILE TERMS FROM KSTP 1 AND KPER 2

end timestep


start timestep kper="2" kstp="2689" mode="normal"


 FMI SETTING BUDGET TERMS FOR KSTP 2689 AND KPER 2 TO BUDGET FILE TERMS FROM KSTP 1 AND KPER 2

 FMI SETTING HEAD FOR KSTP 2689 AND KPER 2 TO BINARY FILE HEADS FROM KSTP 1 AND KPER 2

 SFR-1 SETTING BUDGET TERMS FOR KSTP 2689 AND KPER 2 TO BUDGET FILE TERMS FROM KSTP 1 AND KPER 2

end timestep


start timestep kper="2" kstp="2690" mode="normal"


 FMI SETTING BUDGET TERMS FOR KSTP 2690 AND KPER 2 TO BUDGET FILE TERMS FROM KSTP 1 AND KPER 2

 FMI SETTING HEAD FOR KSTP 2690 AND KPER 2 TO BINARY FILE HEADS FROM KSTP 1 AND KPER 2

 SFR-1 SETTING BUDGET TERMS FOR KSTP 2690 AND KPER 2 TO BUDGET FILE TERMS FROM KSTP 1 AND KPER 2

 CONCENTRATION WILL BE SAVED ON UNIT 1024 AT END OF TIME STEP 2690, STRESS PERIOD    2

end timestep


start timestep kper="2" kstp="2691" mode="normal"


 FMI SETTING BUDGET TERMS FOR KSTP 2691 AND KPER 2 TO BUDGET FILE TERMS FROM KSTP 1 AND KPER 2

 FMI SETTING HEAD FOR KSTP 2691 AND KPER 2 TO BINARY FILE HEADS FROM KSTP 1 AND KPER 2

 SFR-1 SETTING BUDGET TERMS FOR KSTP 2691 AND KPER 2 TO BUDGET FILE TERMS FROM KSTP 1 AND KPER 2

end timestep


start timestep kper="2" kstp="2692" mode="normal"


 FMI SETTING BUDGET TERMS FOR KSTP 2692 AND KPER 2 TO BUDGET FILE TERMS FROM KSTP 1 AND KPER 2

 FMI SETTING HEAD FOR KSTP 2692 AND KPER 2 TO BINARY FILE HEADS FROM KSTP 1 AND KPER 2

 SFR-1 SETTING BUDGET TERMS FOR KSTP 2692 AND KPER 2 TO BUDGET FILE TERMS FROM KSTP 1 AND KPER 2

end timestep


start timestep kper="2" kstp="2693" mode="normal"


 FMI SETTING BUDGET TERMS FOR KSTP 2693 AND KPER 2 TO BUDGET FILE TERMS FROM KSTP 1 AND KPER 2

 FMI SETTING HEAD FOR KSTP 2693 AND KPER 2 TO BINARY FILE HEADS FROM KSTP 1 AND KPER 2

 SFR-1 SETTING BUDGET TERMS FOR KSTP 2693 AND KPER 2 TO BUDGET FILE TERMS FROM KSTP 1 AND KPER 2

end timestep


start timestep kper="2" kstp="2694" mode="normal"


 FMI SETTING BUDGET TERMS FOR KSTP 2694 AND KPER 2 TO BUDGET FILE TERMS FROM KSTP 1 AND KPER 2

 FMI SETTING HEAD FOR KSTP 2694 AND KPER 2 TO BINARY FILE HEADS FROM KSTP 1 AND KPER 2

 SFR-1 SETTING BUDGET TERMS FOR KSTP 2694 AND KPER 2 TO BUDGET FILE TERMS FROM KSTP 1 AND KPER 2

end timestep


start timestep kper="2" kstp="2695" mode="normal"


 FMI SETTING BUDGET TERMS FOR KSTP 2695 AND KPER 2 TO BUDGET FILE TERMS FROM KSTP 1 AND KPER 2

 FMI SETTING HEAD FOR KSTP 2695 AND KPER 2 TO BINARY FILE HEADS FROM KSTP 1 AND KPER 2

 SFR-1 SETTING BUDGET TERMS FOR KSTP 2695 AND KPER 2 TO BUDGET FILE TERMS FROM KSTP 1 AND KPER 2

end timestep


start timestep kper="2" kstp="2696" mode="normal"


 FMI SETTING BUDGET TERMS FOR KSTP 2696 AND KPER 2 TO BUDGET FILE TERMS FROM KSTP 1 AND KPER 2

 FMI SETTING HEAD FOR KSTP 2696 AND KPER 2 TO BINARY FILE HEADS FROM KSTP 1 AND KPER 2

 SFR-1 SETTING BUDGET TERMS FOR KSTP 2696 AND KPER 2 TO BUDGET FILE TERMS FROM KSTP 1 AND KPER 2

end timestep


start timestep kper="2" kstp="2697" mode="normal"


 FMI SETTING BUDGET TERMS FOR KSTP 2697 AND KPER 2 TO BUDGET FILE TERMS FROM KSTP 1 AND KPER 2

 FMI SETTING HEAD FOR KSTP 2697 AND KPER 2 TO BINARY FILE HEADS FROM KSTP 1 AND KPER 2

 SFR-1 SETTING BUDGET TERMS FOR KSTP 2697 AND KPER 2 TO BUDGET FILE TERMS FROM KSTP 1 AND KPER 2

end timestep


start timestep kper="2" kstp="2698" mode="normal"


 FMI SETTING BUDGET TERMS FOR KSTP 2698 AND KPER 2 TO BUDGET FILE TERMS FROM KSTP 1 AND KPER 2

 FMI SETTING HEAD FOR KSTP 2698 AND KPER 2 TO BINARY FILE HEADS FROM KSTP 1 AND KPER 2

 SFR-1 SETTING BUDGET TERMS FOR KSTP 2698 AND KPER 2 TO BUDGET FILE TERMS FROM KSTP 1 AND KPER 2

end timestep


start timestep kper="2" kstp="2699" mode="normal"


 FMI SETTING BUDGET TERMS FOR KSTP 2699 AND KPER 2 TO BUDGET FILE TERMS FROM KSTP 1 AND KPER 2

 FMI SETTING HEAD FOR KSTP 2699 AND KPER 2 TO BINARY FILE HEADS FROM KSTP 1 AND KPER 2

 SFR-1 SETTING BUDGET TERMS FOR KSTP 2699 AND KPER 2 TO BUDGET FILE TERMS FROM KSTP 1 AND KPER 2

end timestep


start timestep kper="2" kstp="2700" mode="normal"


 FMI SETTING BUDGET TERMS FOR KSTP 2700 AND KPER 2 TO BUDGET FILE TERMS FROM KSTP 1 AND KPER 2

 FMI SETTING HEAD FOR KSTP 2700 AND KPER 2 TO BINARY FILE HEADS FROM KSTP 1 AND KPER 2

 SFR-1 SETTING BUDGET TERMS FOR KSTP 2700 AND KPER 2 TO BUDGET FILE TERMS FROM KSTP 1 AND KPER 2

 CONCENTRATION WILL BE SAVED ON UNIT 1024 AT END OF TIME STEP 2700, STRESS PERIOD    2

end timestep


start timestep kper="2" kstp="2701" mode="normal"


 FMI SETTING BUDGET TERMS FOR KSTP 2701 AND KPER 2 TO BUDGET FILE TERMS FROM KSTP 1 AND KPER 2

 FMI SETTING HEAD FOR KSTP 2701 AND KPER 2 TO BINARY FILE HEADS FROM KSTP 1 AND KPER 2

 SFR-1 SETTING BUDGET TERMS FOR KSTP 2701 AND KPER 2 TO BUDGET FILE TERMS FROM KSTP 1 AND KPER 2

end timestep


start timestep kper="2" kstp="2702" mode="normal"


 FMI SETTING BUDGET TERMS FOR KSTP 2702 AND KPER 2 TO BUDGET FILE TERMS FROM KSTP 1 AND KPER 2

 FMI SETTING HEAD FOR KSTP 2702 AND KPER 2 TO BINARY FILE HEADS FROM KSTP 1 AND KPER 2

 SFR-1 SETTING BUDGET TERMS FOR KSTP 2702 AND KPER 2 TO BUDGET FILE TERMS FROM KSTP 1 AND KPER 2

end timestep


start timestep kper="2" kstp="2703" mode="normal"


 FMI SETTING BUDGET TERMS FOR KSTP 2703 AND KPER 2 TO BUDGET FILE TERMS FROM KSTP 1 AND KPER 2

 FMI SETTING HEAD FOR KSTP 2703 AND KPER 2 TO BINARY FILE HEADS FROM KSTP 1 AND KPER 2

 SFR-1 SETTING BUDGET TERMS FOR KSTP 2703 AND KPER 2 TO BUDGET FILE TERMS FROM KSTP 1 AND KPER 2

end timestep


start timestep kper="2" kstp="2704" mode="normal"


 FMI SETTING BUDGET TERMS FOR KSTP 2704 AND KPER 2 TO BUDGET FILE TERMS FROM KSTP 1 AND KPER 2

 FMI SETTING HEAD FOR KSTP 2704 AND KPER 2 TO BINARY FILE HEADS FROM KSTP 1 AND KPER 2

 SFR-1 SETTING BUDGET TERMS FOR KSTP 2704 AND KPER 2 TO BUDGET FILE TERMS FROM KSTP 1 AND KPER 2

end timestep


start timestep kper="2" kstp="2705" mode="normal"


 FMI SETTING BUDGET TERMS FOR KSTP 2705 AND KPER 2 TO BUDGET FILE TERMS FROM KSTP 1 AND KPER 2

 FMI SETTING HEAD FOR KSTP 2705 AND KPER 2 TO BINARY FILE HEADS FROM KSTP 1 AND KPER 2

 SFR-1 SETTING BUDGET TERMS FOR KSTP 2705 AND KPER 2 TO BUDGET FILE TERMS FROM KSTP 1 AND KPER 2

end timestep


start timestep kper="2" kstp="2706" mode="normal"


 FMI SETTING BUDGET TERMS FOR KSTP 2706 AND KPER 2 TO BUDGET FILE TERMS FROM KSTP 1 AND KPER 2

 FMI SETTING HEAD FOR KSTP 2706 AND KPER 2 TO BINARY FILE HEADS FROM KSTP 1 AND KPER 2

 SFR-1 SETTING BUDGET TERMS FOR KSTP 2706 AND KPER 2 TO BUDGET FILE TERMS FROM KSTP 1 AND KPER 2

end timestep


start timestep kper="2" kstp="2707" mode="normal"


 FMI SETTING BUDGET TERMS FOR KSTP 2707 AND KPER 2 TO BUDGET FILE TERMS FROM KSTP 1 AND KPER 2

 FMI SETTING HEAD FOR KSTP 2707 AND KPER 2 TO BINARY FILE HEADS FROM KSTP 1 AND KPER 2

 SFR-1 SETTING BUDGET TERMS FOR KSTP 2707 AND KPER 2 TO BUDGET FILE TERMS FROM KSTP 1 AND KPER 2

end timestep


start timestep kper="2" kstp="2708" mode="normal"


 FMI SETTING BUDGET TERMS FOR KSTP 2708 AND KPER 2 TO BUDGET FILE TERMS FROM KSTP 1 AND KPER 2

 FMI SETTING HEAD FOR KSTP 2708 AND KPER 2 TO BINARY FILE HEADS FROM KSTP 1 AND KPER 2

 SFR-1 SETTING BUDGET TERMS FOR KSTP 2708 AND KPER 2 TO BUDGET FILE TERMS FROM KSTP 1 AND KPER 2

end timestep


start timestep kper="2" kstp="2709" mode="normal"


 FMI SETTING BUDGET TERMS FOR KSTP 2709 AND KPER 2 TO BUDGET FILE TERMS FROM KSTP 1 AND KPER 2

 FMI SETTING HEAD FOR KSTP 2709 AND KPER 2 TO BINARY FILE HEADS FROM KSTP 1 AND KPER 2

 SFR-1 SETTING BUDGET TERMS FOR KSTP 2709 AND KPER 2 TO BUDGET FILE TERMS FROM KSTP 1 AND KPER 2

end timestep


start timestep kper="2" kstp="2710" mode="normal"


 FMI SETTING BUDGET TERMS FOR KSTP 2710 AND KPER 2 TO BUDGET FILE TERMS FROM KSTP 1 AND KPER 2

 FMI SETTING HEAD FOR KSTP 2710 AND KPER 2 TO BINARY FILE HEADS FROM KSTP 1 AND KPER 2

 SFR-1 SETTING BUDGET TERMS FOR KSTP 2710 AND KPER 2 TO BUDGET FILE TERMS FROM KSTP 1 AND KPER 2

 CONCENTRATION WILL BE SAVED ON UNIT 1024 AT END OF TIME STEP 2710, STRESS PERIOD    2

end timestep


start timestep kper="2" kstp="2711" mode="normal"


 FMI SETTING BUDGET TERMS FOR KSTP 2711 AND KPER 2 TO BUDGET FILE TERMS FROM KSTP 1 AND KPER 2

 FMI SETTING HEAD FOR KSTP 2711 AND KPER 2 TO BINARY FILE HEADS FROM KSTP 1 AND KPER 2

 SFR-1 SETTING BUDGET TERMS FOR KSTP 2711 AND KPER 2 TO BUDGET FILE TERMS FROM KSTP 1 AND KPER 2

end timestep


start timestep kper="2" kstp="2712" mode="normal"


 FMI SETTING BUDGET TERMS FOR KSTP 2712 AND KPER 2 TO BUDGET FILE TERMS FROM KSTP 1 AND KPER 2

 FMI SETTING HEAD FOR KSTP 2712 AND KPER 2 TO BINARY FILE HEADS FROM KSTP 1 AND KPER 2

 SFR-1 SETTING BUDGET TERMS FOR KSTP 2712 AND KPER 2 TO BUDGET FILE TERMS FROM KSTP 1 AND KPER 2

end timestep


start timestep kper="2" kstp="2713" mode="normal"


 FMI SETTING BUDGET TERMS FOR KSTP 2713 AND KPER 2 TO BUDGET FILE TERMS FROM KSTP 1 AND KPER 2

 FMI SETTING HEAD FOR KSTP 2713 AND KPER 2 TO BINARY FILE HEADS FROM KSTP 1 AND KPER 2

 SFR-1 SETTING BUDGET TERMS FOR KSTP 2713 AND KPER 2 TO BUDGET FILE TERMS FROM KSTP 1 AND KPER 2

end timestep


start timestep kper="2" kstp="2714" mode="normal"


 FMI SETTING BUDGET TERMS FOR KSTP 2714 AND KPER 2 TO BUDGET FILE TERMS FROM KSTP 1 AND KPER 2

 FMI SETTING HEAD FOR KSTP 2714 AND KPER 2 TO BINARY FILE HEADS FROM KSTP 1 AND KPER 2

 SFR-1 SETTING BUDGET TERMS FOR KSTP 2714 AND KPER 2 TO BUDGET FILE TERMS FROM KSTP 1 AND KPER 2

end timestep


start timestep kper="2" kstp="2715" mode="normal"


 FMI SETTING BUDGET TERMS FOR KSTP 2715 AND KPER 2 TO BUDGET FILE TERMS FROM KSTP 1 AND KPER 2

 FMI SETTING HEAD FOR KSTP 2715 AND KPER 2 TO BINARY FILE HEADS FROM KSTP 1 AND KPER 2

 SFR-1 SETTING BUDGET TERMS FOR KSTP 2715 AND KPER 2 TO BUDGET FILE TERMS FROM KSTP 1 AND KPER 2

end timestep


start timestep kper="2" kstp="2716" mode="normal"


 FMI SETTING BUDGET TERMS FOR KSTP 2716 AND KPER 2 TO BUDGET FILE TERMS FROM KSTP 1 AND KPER 2

 FMI SETTING HEAD FOR KSTP 2716 AND KPER 2 TO BINARY FILE HEADS FROM KSTP 1 AND KPER 2

 SFR-1 SETTING BUDGET TERMS FOR KSTP 2716 AND KPER 2 TO BUDGET FILE TERMS FROM KSTP 1 AND KPER 2

end timestep


start timestep kper="2" kstp="2717" mode="normal"


 FMI SETTING BUDGET TERMS FOR KSTP 2717 AND KPER 2 TO BUDGET FILE TERMS FROM KSTP 1 AND KPER 2

 FMI SETTING HEAD FOR KSTP 2717 AND KPER 2 TO BINARY FILE HEADS FROM KSTP 1 AND KPER 2

 SFR-1 SETTING BUDGET TERMS FOR KSTP 2717 AND KPER 2 TO BUDGET FILE TERMS FROM KSTP 1 AND KPER 2

end timestep


start timestep kper="2" kstp="2718" mode="normal"


 FMI SETTING BUDGET TERMS FOR KSTP 2718 AND KPER 2 TO BUDGET FILE TERMS FROM KSTP 1 AND KPER 2

 FMI SETTING HEAD FOR KSTP 2718 AND KPER 2 TO BINARY FILE HEADS FROM KSTP 1 AND KPER 2

 SFR-1 SETTING BUDGET TERMS FOR KSTP 2718 AND KPER 2 TO BUDGET FILE TERMS FROM KSTP 1 AND KPER 2

end timestep


start timestep kper="2" kstp="2719" mode="normal"


 FMI SETTING BUDGET TERMS FOR KSTP 2719 AND KPER 2 TO BUDGET FILE TERMS FROM KSTP 1 AND KPER 2

 FMI SETTING HEAD FOR KSTP 2719 AND KPER 2 TO BINARY FILE HEADS FROM KSTP 1 AND KPER 2

 SFR-1 SETTING BUDGET TERMS FOR KSTP 2719 AND KPER 2 TO BUDGET FILE TERMS FROM KSTP 1 AND KPER 2

end timestep


start timestep kper="2" kstp="2720" mode="normal"


 FMI SETTING BUDGET TERMS FOR KSTP 2720 AND KPER 2 TO BUDGET FILE TERMS FROM KSTP 1 AND KPER 2

 FMI SETTING HEAD FOR KSTP 2720 AND KPER 2 TO BINARY FILE HEADS FROM KSTP 1 AND KPER 2

 SFR-1 SETTING BUDGET TERMS FOR KSTP 2720 AND KPER 2 TO BUDGET FILE TERMS FROM KSTP 1 AND KPER 2

 CONCENTRATION WILL BE SAVED ON UNIT 1024 AT END OF TIME STEP 2720, STRESS PERIOD    2

end timestep


start timestep kper="2" kstp="2721" mode="normal"


 FMI SETTING BUDGET TERMS FOR KSTP 2721 AND KPER 2 TO BUDGET FILE TERMS FROM KSTP 1 AND KPER 2

 FMI SETTING HEAD FOR KSTP 2721 AND KPER 2 TO BINARY FILE HEADS FROM KSTP 1 AND KPER 2

 SFR-1 SETTING BUDGET TERMS FOR KSTP 2721 AND KPER 2 TO BUDGET FILE TERMS FROM KSTP 1 AND KPER 2

end timestep


start timestep kper="2" kstp="2722" mode="normal"


 FMI SETTING BUDGET TERMS FOR KSTP 2722 AND KPER 2 TO BUDGET FILE TERMS FROM KSTP 1 AND KPER 2

 FMI SETTING HEAD FOR KSTP 2722 AND KPER 2 TO BINARY FILE HEADS FROM KSTP 1 AND KPER 2

 SFR-1 SETTING BUDGET TERMS FOR KSTP 2722 AND KPER 2 TO BUDGET FILE TERMS FROM KSTP 1 AND KPER 2

end timestep


start timestep kper="2" kstp="2723" mode="normal"


 FMI SETTING BUDGET TERMS FOR KSTP 2723 AND KPER 2 TO BUDGET FILE TERMS FROM KSTP 1 AND KPER 2

 FMI SETTING HEAD FOR KSTP 2723 AND KPER 2 TO BINARY FILE HEADS FROM KSTP 1 AND KPER 2

 SFR-1 SETTING BUDGET TERMS FOR KSTP 2723 AND KPER 2 TO BUDGET FILE TERMS FROM KSTP 1 AND KPER 2

end timestep


start timestep kper="2" kstp="2724" mode="normal"


 FMI SETTING BUDGET TERMS FOR KSTP 2724 AND KPER 2 TO BUDGET FILE TERMS FROM KSTP 1 AND KPER 2

 FMI SETTING HEAD FOR KSTP 2724 AND KPER 2 TO BINARY FILE HEADS FROM KSTP 1 AND KPER 2

 SFR-1 SETTING BUDGET TERMS FOR KSTP 2724 AND KPER 2 TO BUDGET FILE TERMS FROM KSTP 1 AND KPER 2

end timestep


start timestep kper="2" kstp="2725" mode="normal"


 FMI SETTING BUDGET TERMS FOR KSTP 2725 AND KPER 2 TO BUDGET FILE TERMS FROM KSTP 1 AND KPER 2

 FMI SETTING HEAD FOR KSTP 2725 AND KPER 2 TO BINARY FILE HEADS FROM KSTP 1 AND KPER 2

 SFR-1 SETTING BUDGET TERMS FOR KSTP 2725 AND KPER 2 TO BUDGET FILE TERMS FROM KSTP 1 AND KPER 2

end timestep


start timestep kper="2" kstp="2726" mode="normal"


 FMI SETTING BUDGET TERMS FOR KSTP 2726 AND KPER 2 TO BUDGET FILE TERMS FROM KSTP 1 AND KPER 2

 FMI SETTING HEAD FOR KSTP 2726 AND KPER 2 TO BINARY FILE HEADS FROM KSTP 1 AND KPER 2

 SFR-1 SETTING BUDGET TERMS FOR KSTP 2726 AND KPER 2 TO BUDGET FILE TERMS FROM KSTP 1 AND KPER 2

end timestep


start timestep kper="2" kstp="2727" mode="normal"


 FMI SETTING BUDGET TERMS FOR KSTP 2727 AND KPER 2 TO BUDGET FILE TERMS FROM KSTP 1 AND KPER 2

 FMI SETTING HEAD FOR KSTP 2727 AND KPER 2 TO BINARY FILE HEADS FROM KSTP 1 AND KPER 2

 SFR-1 SETTING BUDGET TERMS FOR KSTP 2727 AND KPER 2 TO BUDGET FILE TERMS FROM KSTP 1 AND KPER 2

end timestep


start timestep kper="2" kstp="2728" mode="normal"


 FMI SETTING BUDGET TERMS FOR KSTP 2728 AND KPER 2 TO BUDGET FILE TERMS FROM KSTP 1 AND KPER 2

 FMI SETTING HEAD FOR KSTP 2728 AND KPER 2 TO BINARY FILE HEADS FROM KSTP 1 AND KPER 2

 SFR-1 SETTING BUDGET TERMS FOR KSTP 2728 AND KPER 2 TO BUDGET FILE TERMS FROM KSTP 1 AND KPER 2

end timestep


start timestep kper="2" kstp="2729" mode="normal"


 FMI SETTING BUDGET TERMS FOR KSTP 2729 AND KPER 2 TO BUDGET FILE TERMS FROM KSTP 1 AND KPER 2

 FMI SETTING HEAD FOR KSTP 2729 AND KPER 2 TO BINARY FILE HEADS FROM KSTP 1 AND KPER 2

 SFR-1 SETTING BUDGET TERMS FOR KSTP 2729 AND KPER 2 TO BUDGET FILE TERMS FROM KSTP 1 AND KPER 2

end timestep


start timestep kper="2" kstp="2730" mode="normal"


 FMI SETTING BUDGET TERMS FOR KSTP 2730 AND KPER 2 TO BUDGET FILE TERMS FROM KSTP 1 AND KPER 2

 FMI SETTING HEAD FOR KSTP 2730 AND KPER 2 TO BINARY FILE HEADS FROM KSTP 1 AND KPER 2

 SFR-1 SETTING BUDGET TERMS FOR KSTP 2730 AND KPER 2 TO BUDGET FILE TERMS FROM KSTP 1 AND KPER 2

 CONCENTRATION WILL BE SAVED ON UNIT 1024 AT END OF TIME STEP 2730, STRESS PERIOD    2

end timestep


start timestep kper="2" kstp="2731" mode="normal"


 FMI SETTING BUDGET TERMS FOR KSTP 2731 AND KPER 2 TO BUDGET FILE TERMS FROM KSTP 1 AND KPER 2

 FMI SETTING HEAD FOR KSTP 2731 AND KPER 2 TO BINARY FILE HEADS FROM KSTP 1 AND KPER 2

 SFR-1 SETTING BUDGET TERMS FOR KSTP 2731 AND KPER 2 TO BUDGET FILE TERMS FROM KSTP 1 AND KPER 2

end timestep


start timestep kper="2" kstp="2732" mode="normal"


 FMI SETTING BUDGET TERMS FOR KSTP 2732 AND KPER 2 TO BUDGET FILE TERMS FROM KSTP 1 AND KPER 2

 FMI SETTING HEAD FOR KSTP 2732 AND KPER 2 TO BINARY FILE HEADS FROM KSTP 1 AND KPER 2

 SFR-1 SETTING BUDGET TERMS FOR KSTP 2732 AND KPER 2 TO BUDGET FILE TERMS FROM KSTP 1 AND KPER 2

end timestep


start timestep kper="2" kstp="2733" mode="normal"


 FMI SETTING BUDGET TERMS FOR KSTP 2733 AND KPER 2 TO BUDGET FILE TERMS FROM KSTP 1 AND KPER 2

 FMI SETTING HEAD FOR KSTP 2733 AND KPER 2 TO BINARY FILE HEADS FROM KSTP 1 AND KPER 2

 SFR-1 SETTING BUDGET TERMS FOR KSTP 2733 AND KPER 2 TO BUDGET FILE TERMS FROM KSTP 1 AND KPER 2

end timestep


start timestep kper="2" kstp="2734" mode="normal"


 FMI SETTING BUDGET TERMS FOR KSTP 2734 AND KPER 2 TO BUDGET FILE TERMS FROM KSTP 1 AND KPER 2

 FMI SETTING HEAD FOR KSTP 2734 AND KPER 2 TO BINARY FILE HEADS FROM KSTP 1 AND KPER 2

 SFR-1 SETTING BUDGET TERMS FOR KSTP 2734 AND KPER 2 TO BUDGET FILE TERMS FROM KSTP 1 AND KPER 2

end timestep


start timestep kper="2" kstp="2735" mode="normal"


 FMI SETTING BUDGET TERMS FOR KSTP 2735 AND KPER 2 TO BUDGET FILE TERMS FROM KSTP 1 AND KPER 2

 FMI SETTING HEAD FOR KSTP 2735 AND KPER 2 TO BINARY FILE HEADS FROM KSTP 1 AND KPER 2

 SFR-1 SETTING BUDGET TERMS FOR KSTP 2735 AND KPER 2 TO BUDGET FILE TERMS FROM KSTP 1 AND KPER 2

end timestep


start timestep kper="2" kstp="2736" mode="normal"


 FMI SETTING BUDGET TERMS FOR KSTP 2736 AND KPER 2 TO BUDGET FILE TERMS FROM KSTP 1 AND KPER 2

 FMI SETTING HEAD FOR KSTP 2736 AND KPER 2 TO BINARY FILE HEADS FROM KSTP 1 AND KPER 2

 SFR-1 SETTING BUDGET TERMS FOR KSTP 2736 AND KPER 2 TO BUDGET FILE TERMS FROM KSTP 1 AND KPER 2

end timestep


start timestep kper="2" kstp="2737" mode="normal"


 FMI SETTING BUDGET TERMS FOR KSTP 2737 AND KPER 2 TO BUDGET FILE TERMS FROM KSTP 1 AND KPER 2

 FMI SETTING HEAD FOR KSTP 2737 AND KPER 2 TO BINARY FILE HEADS FROM KSTP 1 AND KPER 2

 SFR-1 SETTING BUDGET TERMS FOR KSTP 2737 AND KPER 2 TO BUDGET FILE TERMS FROM KSTP 1 AND KPER 2

end timestep


start timestep kper="2" kstp="2738" mode="normal"


 FMI SETTING BUDGET TERMS FOR KSTP 2738 AND KPER 2 TO BUDGET FILE TERMS FROM KSTP 1 AND KPER 2

 FMI SETTING HEAD FOR KSTP 2738 AND KPER 2 TO BINARY FILE HEADS FROM KSTP 1 AND KPER 2

 SFR-1 SETTING BUDGET TERMS FOR KSTP 2738 AND KPER 2 TO BUDGET FILE TERMS FROM KSTP 1 AND KPER 2

end timestep


start timestep kper="2" kstp="2739" mode="normal"


 FMI SETTING BUDGET TERMS FOR KSTP 2739 AND KPER 2 TO BUDGET FILE TERMS FROM KSTP 1 AND KPER 2

 FMI SETTING HEAD FOR KSTP 2739 AND KPER 2 TO BINARY FILE HEADS FROM KSTP 1 AND KPER 2

 SFR-1 SETTING BUDGET TERMS FOR KSTP 2739 AND KPER 2 TO BUDGET FILE TERMS FROM KSTP 1 AND KPER 2

end timestep


start timestep kper="2" kstp="2740" mode="normal"


 FMI SETTING BUDGET TERMS FOR KSTP 2740 AND KPER 2 TO BUDGET FILE TERMS FROM KSTP 1 AND KPER 2

 FMI SETTING HEAD FOR KSTP 2740 AND KPER 2 TO BINARY FILE HEADS FROM KSTP 1 AND KPER 2

 SFR-1 SETTING BUDGET TERMS FOR KSTP 2740 AND KPER 2 TO BUDGET FILE TERMS FROM KSTP 1 AND KPER 2

 CONCENTRATION WILL BE SAVED ON UNIT 1024 AT END OF TIME STEP 2740, STRESS PERIOD    2

end timestep


start timestep kper="2" kstp="2741" mode="normal"


 FMI SETTING BUDGET TERMS FOR KSTP 2741 AND KPER 2 TO BUDGET FILE TERMS FROM KSTP 1 AND KPER 2

 FMI SETTING HEAD FOR KSTP 2741 AND KPER 2 TO BINARY FILE HEADS FROM KSTP 1 AND KPER 2

 SFR-1 SETTING BUDGET TERMS FOR KSTP 2741 AND KPER 2 TO BUDGET FILE TERMS FROM KSTP 1 AND KPER 2

end timestep


start timestep kper="2" kstp="2742" mode="normal"


 FMI SETTING BUDGET TERMS FOR KSTP 2742 AND KPER 2 TO BUDGET FILE TERMS FROM KSTP 1 AND KPER 2

 FMI SETTING HEAD FOR KSTP 2742 AND KPER 2 TO BINARY FILE HEADS FROM KSTP 1 AND KPER 2

 SFR-1 SETTING BUDGET TERMS FOR KSTP 2742 AND KPER 2 TO BUDGET FILE TERMS FROM KSTP 1 AND KPER 2

end timestep


start timestep kper="2" kstp="2743" mode="normal"


 FMI SETTING BUDGET TERMS FOR KSTP 2743 AND KPER 2 TO BUDGET FILE TERMS FROM KSTP 1 AND KPER 2

 FMI SETTING HEAD FOR KSTP 2743 AND KPER 2 TO BINARY FILE HEADS FROM KSTP 1 AND KPER 2

 SFR-1 SETTING BUDGET TERMS FOR KSTP 2743 AND KPER 2 TO BUDGET FILE TERMS FROM KSTP 1 AND KPER 2

end timestep


start timestep kper="2" kstp="2744" mode="normal"


 FMI SETTING BUDGET TERMS FOR KSTP 2744 AND KPER 2 TO BUDGET FILE TERMS FROM KSTP 1 AND KPER 2

 FMI SETTING HEAD FOR KSTP 2744 AND KPER 2 TO BINARY FILE HEADS FROM KSTP 1 AND KPER 2

 SFR-1 SETTING BUDGET TERMS FOR KSTP 2744 AND KPER 2 TO BUDGET FILE TERMS FROM KSTP 1 AND KPER 2

end timestep


start timestep kper="2" kstp="2745" mode="normal"


 FMI SETTING BUDGET TERMS FOR KSTP 2745 AND KPER 2 TO BUDGET FILE TERMS FROM KSTP 1 AND KPER 2

 FMI SETTING HEAD FOR KSTP 2745 AND KPER 2 TO BINARY FILE HEADS FROM KSTP 1 AND KPER 2

 SFR-1 SETTING BUDGET TERMS FOR KSTP 2745 AND KPER 2 TO BUDGET FILE TERMS FROM KSTP 1 AND KPER 2

end timestep


start timestep kper="2" kstp="2746" mode="normal"


 FMI SETTING BUDGET TERMS FOR KSTP 2746 AND KPER 2 TO BUDGET FILE TERMS FROM KSTP 1 AND KPER 2

 FMI SETTING HEAD FOR KSTP 2746 AND KPER 2 TO BINARY FILE HEADS FROM KSTP 1 AND KPER 2

 SFR-1 SETTING BUDGET TERMS FOR KSTP 2746 AND KPER 2 TO BUDGET FILE TERMS FROM KSTP 1 AND KPER 2

end timestep


start timestep kper="2" kstp="2747" mode="normal"


 FMI SETTING BUDGET TERMS FOR KSTP 2747 AND KPER 2 TO BUDGET FILE TERMS FROM KSTP 1 AND KPER 2

 FMI SETTING HEAD FOR KSTP 2747 AND KPER 2 TO BINARY FILE HEADS FROM KSTP 1 AND KPER 2

 SFR-1 SETTING BUDGET TERMS FOR KSTP 2747 AND KPER 2 TO BUDGET FILE TERMS FROM KSTP 1 AND KPER 2

end timestep


start timestep kper="2" kstp="2748" mode="normal"


 FMI SETTING BUDGET TERMS FOR KSTP 2748 AND KPER 2 TO BUDGET FILE TERMS FROM KSTP 1 AND KPER 2

 FMI SETTING HEAD FOR KSTP 2748 AND KPER 2 TO BINARY FILE HEADS FROM KSTP 1 AND KPER 2

 SFR-1 SETTING BUDGET TERMS FOR KSTP 2748 AND KPER 2 TO BUDGET FILE TERMS FROM KSTP 1 AND KPER 2

end timestep


start timestep kper="2" kstp="2749" mode="normal"


 FMI SETTING BUDGET TERMS FOR KSTP 2749 AND KPER 2 TO BUDGET FILE TERMS FROM KSTP 1 AND KPER 2

 FMI SETTING HEAD FOR KSTP 2749 AND KPER 2 TO BINARY FILE HEADS FROM KSTP 1 AND KPER 2

 SFR-1 SETTING BUDGET TERMS FOR KSTP 2749 AND KPER 2 TO BUDGET FILE TERMS FROM KSTP 1 AND KPER 2

end timestep


start timestep kper="2" kstp="2750" mode="normal"


 FMI SETTING BUDGET TERMS FOR KSTP 2750 AND KPER 2 TO BUDGET FILE TERMS FROM KSTP 1 AND KPER 2

 FMI SETTING HEAD FOR KSTP 2750 AND KPER 2 TO BINARY FILE HEADS FROM KSTP 1 AND KPER 2

 SFR-1 SETTING BUDGET TERMS FOR KSTP 2750 AND KPER 2 TO BUDGET FILE TERMS FROM KSTP 1 AND KPER 2

 CONCENTRATION WILL BE SAVED ON UNIT 1024 AT END OF TIME STEP 2750, STRESS PERIOD    2

end timestep


start timestep kper="2" kstp="2751" mode="normal"


 FMI SETTING BUDGET TERMS FOR KSTP 2751 AND KPER 2 TO BUDGET FILE TERMS FROM KSTP 1 AND KPER 2

 FMI SETTING HEAD FOR KSTP 2751 AND KPER 2 TO BINARY FILE HEADS FROM KSTP 1 AND KPER 2

 SFR-1 SETTING BUDGET TERMS FOR KSTP 2751 AND KPER 2 TO BUDGET FILE TERMS FROM KSTP 1 AND KPER 2

end timestep


start timestep kper="2" kstp="2752" mode="normal"


 FMI SETTING BUDGET TERMS FOR KSTP 2752 AND KPER 2 TO BUDGET FILE TERMS FROM KSTP 1 AND KPER 2

 FMI SETTING HEAD FOR KSTP 2752 AND KPER 2 TO BINARY FILE HEADS FROM KSTP 1 AND KPER 2

 SFR-1 SETTING BUDGET TERMS FOR KSTP 2752 AND KPER 2 TO BUDGET FILE TERMS FROM KSTP 1 AND KPER 2

end timestep


start timestep kper="2" kstp="2753" mode="normal"


 FMI SETTING BUDGET TERMS FOR KSTP 2753 AND KPER 2 TO BUDGET FILE TERMS FROM KSTP 1 AND KPER 2

 FMI SETTING HEAD FOR KSTP 2753 AND KPER 2 TO BINARY FILE HEADS FROM KSTP 1 AND KPER 2

 SFR-1 SETTING BUDGET TERMS FOR KSTP 2753 AND KPER 2 TO BUDGET FILE TERMS FROM KSTP 1 AND KPER 2

end timestep


start timestep kper="2" kstp="2754" mode="normal"


 FMI SETTING BUDGET TERMS FOR KSTP 2754 AND KPER 2 TO BUDGET FILE TERMS FROM KSTP 1 AND KPER 2

 FMI SETTING HEAD FOR KSTP 2754 AND KPER 2 TO BINARY FILE HEADS FROM KSTP 1 AND KPER 2

 SFR-1 SETTING BUDGET TERMS FOR KSTP 2754 AND KPER 2 TO BUDGET FILE TERMS FROM KSTP 1 AND KPER 2

end timestep


start timestep kper="2" kstp="2755" mode="normal"


 FMI SETTING BUDGET TERMS FOR KSTP 2755 AND KPER 2 TO BUDGET FILE TERMS FROM KSTP 1 AND KPER 2

 FMI SETTING HEAD FOR KSTP 2755 AND KPER 2 TO BINARY FILE HEADS FROM KSTP 1 AND KPER 2

 SFR-1 SETTING BUDGET TERMS FOR KSTP 2755 AND KPER 2 TO BUDGET FILE TERMS FROM KSTP 1 AND KPER 2

end timestep


start timestep kper="2" kstp="2756" mode="normal"


 FMI SETTING BUDGET TERMS FOR KSTP 2756 AND KPER 2 TO BUDGET FILE TERMS FROM KSTP 1 AND KPER 2

 FMI SETTING HEAD FOR KSTP 2756 AND KPER 2 TO BINARY FILE HEADS FROM KSTP 1 AND KPER 2

 SFR-1 SETTING BUDGET TERMS FOR KSTP 2756 AND KPER 2 TO BUDGET FILE TERMS FROM KSTP 1 AND KPER 2

end timestep


start timestep kper="2" kstp="2757" mode="normal"


 FMI SETTING BUDGET TERMS FOR KSTP 2757 AND KPER 2 TO BUDGET FILE TERMS FROM KSTP 1 AND KPER 2

 FMI SETTING HEAD FOR KSTP 2757 AND KPER 2 TO BINARY FILE HEADS FROM KSTP 1 AND KPER 2

 SFR-1 SETTING BUDGET TERMS FOR KSTP 2757 AND KPER 2 TO BUDGET FILE TERMS FROM KSTP 1 AND KPER 2

end timestep


start timestep kper="2" kstp="2758" mode="normal"


 FMI SETTING BUDGET TERMS FOR KSTP 2758 AND KPER 2 TO BUDGET FILE TERMS FROM KSTP 1 AND KPER 2

 FMI SETTING HEAD FOR KSTP 2758 AND KPER 2 TO BINARY FILE HEADS FROM KSTP 1 AND KPER 2

 SFR-1 SETTING BUDGET TERMS FOR KSTP 2758 AND KPER 2 TO BUDGET FILE TERMS FROM KSTP 1 AND KPER 2

end timestep


start timestep kper="2" kstp="2759" mode="normal"


 FMI SETTING BUDGET TERMS FOR KSTP 2759 AND KPER 2 TO BUDGET FILE TERMS FROM KSTP 1 AND KPER 2

 FMI SETTING HEAD FOR KSTP 2759 AND KPER 2 TO BINARY FILE HEADS FROM KSTP 1 AND KPER 2

 SFR-1 SETTING BUDGET TERMS FOR KSTP 2759 AND KPER 2 TO BUDGET FILE TERMS FROM KSTP 1 AND KPER 2

end timestep


start timestep kper="2" kstp="2760" mode="normal"


 FMI SETTING BUDGET TERMS FOR KSTP 2760 AND KPER 2 TO BUDGET FILE TERMS FROM KSTP 1 AND KPER 2

 FMI SETTING HEAD FOR KSTP 2760 AND KPER 2 TO BINARY FILE HEADS FROM KSTP 1 AND KPER 2

 SFR-1 SETTING BUDGET TERMS FOR KSTP 2760 AND KPER 2 TO BUDGET FILE TERMS FROM KSTP 1 AND KPER 2

 CONCENTRATION WILL BE SAVED ON UNIT 1024 AT END OF TIME STEP 2760, STRESS PERIOD    2

end timestep


start timestep kper="2" kstp="2761" mode="normal"


 FMI SETTING BUDGET TERMS FOR KSTP 2761 AND KPER 2 TO BUDGET FILE TERMS FROM KSTP 1 AND KPER 2

 FMI SETTING HEAD FOR KSTP 2761 AND KPER 2 TO BINARY FILE HEADS FROM KSTP 1 AND KPER 2

 SFR-1 SETTING BUDGET TERMS FOR KSTP 2761 AND KPER 2 TO BUDGET FILE TERMS FROM KSTP 1 AND KPER 2

end timestep


start timestep kper="2" kstp="2762" mode="normal"


 FMI SETTING BUDGET TERMS FOR KSTP 2762 AND KPER 2 TO BUDGET FILE TERMS FROM KSTP 1 AND KPER 2

 FMI SETTING HEAD FOR KSTP 2762 AND KPER 2 TO BINARY FILE HEADS FROM KSTP 1 AND KPER 2

 SFR-1 SETTING BUDGET TERMS FOR KSTP 2762 AND KPER 2 TO BUDGET FILE TERMS FROM KSTP 1 AND KPER 2

end timestep


start timestep kper="2" kstp="2763" mode="normal"


 FMI SETTING BUDGET TERMS FOR KSTP 2763 AND KPER 2 TO BUDGET FILE TERMS FROM KSTP 1 AND KPER 2

 FMI SETTING HEAD FOR KSTP 2763 AND KPER 2 TO BINARY FILE HEADS FROM KSTP 1 AND KPER 2

 SFR-1 SETTING BUDGET TERMS FOR KSTP 2763 AND KPER 2 TO BUDGET FILE TERMS FROM KSTP 1 AND KPER 2

end timestep


start timestep kper="2" kstp="2764" mode="normal"


 FMI SETTING BUDGET TERMS FOR KSTP 2764 AND KPER 2 TO BUDGET FILE TERMS FROM KSTP 1 AND KPER 2

 FMI SETTING HEAD FOR KSTP 2764 AND KPER 2 TO BINARY FILE HEADS FROM KSTP 1 AND KPER 2

 SFR-1 SETTING BUDGET TERMS FOR KSTP 2764 AND KPER 2 TO BUDGET FILE TERMS FROM KSTP 1 AND KPER 2

end timestep


start timestep kper="2" kstp="2765" mode="normal"


 FMI SETTING BUDGET TERMS FOR KSTP 2765 AND KPER 2 TO BUDGET FILE TERMS FROM KSTP 1 AND KPER 2

 FMI SETTING HEAD FOR KSTP 2765 AND KPER 2 TO BINARY FILE HEADS FROM KSTP 1 AND KPER 2

 SFR-1 SETTING BUDGET TERMS FOR KSTP 2765 AND KPER 2 TO BUDGET FILE TERMS FROM KSTP 1 AND KPER 2

end timestep


start timestep kper="2" kstp="2766" mode="normal"


 FMI SETTING BUDGET TERMS FOR KSTP 2766 AND KPER 2 TO BUDGET FILE TERMS FROM KSTP 1 AND KPER 2

 FMI SETTING HEAD FOR KSTP 2766 AND KPER 2 TO BINARY FILE HEADS FROM KSTP 1 AND KPER 2

 SFR-1 SETTING BUDGET TERMS FOR KSTP 2766 AND KPER 2 TO BUDGET FILE TERMS FROM KSTP 1 AND KPER 2

end timestep


start timestep kper="2" kstp="2767" mode="normal"


 FMI SETTING BUDGET TERMS FOR KSTP 2767 AND KPER 2 TO BUDGET FILE TERMS FROM KSTP 1 AND KPER 2

 FMI SETTING HEAD FOR KSTP 2767 AND KPER 2 TO BINARY FILE HEADS FROM KSTP 1 AND KPER 2

 SFR-1 SETTING BUDGET TERMS FOR KSTP 2767 AND KPER 2 TO BUDGET FILE TERMS FROM KSTP 1 AND KPER 2

end timestep


start timestep kper="2" kstp="2768" mode="normal"


 FMI SETTING BUDGET TERMS FOR KSTP 2768 AND KPER 2 TO BUDGET FILE TERMS FROM KSTP 1 AND KPER 2

 FMI SETTING HEAD FOR KSTP 2768 AND KPER 2 TO BINARY FILE HEADS FROM KSTP 1 AND KPER 2

 SFR-1 SETTING BUDGET TERMS FOR KSTP 2768 AND KPER 2 TO BUDGET FILE TERMS FROM KSTP 1 AND KPER 2

end timestep


start timestep kper="2" kstp="2769" mode="normal"


 FMI SETTING BUDGET TERMS FOR KSTP 2769 AND KPER 2 TO BUDGET FILE TERMS FROM KSTP 1 AND KPER 2

 FMI SETTING HEAD FOR KSTP 2769 AND KPER 2 TO BINARY FILE HEADS FROM KSTP 1 AND KPER 2

 SFR-1 SETTING BUDGET TERMS FOR KSTP 2769 AND KPER 2 TO BUDGET FILE TERMS FROM KSTP 1 AND KPER 2

end timestep


start timestep kper="2" kstp="2770" mode="normal"


 FMI SETTING BUDGET TERMS FOR KSTP 2770 AND KPER 2 TO BUDGET FILE TERMS FROM KSTP 1 AND KPER 2

 FMI SETTING HEAD FOR KSTP 2770 AND KPER 2 TO BINARY FILE HEADS FROM KSTP 1 AND KPER 2

 SFR-1 SETTING BUDGET TERMS FOR KSTP 2770 AND KPER 2 TO BUDGET FILE TERMS FROM KSTP 1 AND KPER 2

 CONCENTRATION WILL BE SAVED ON UNIT 1024 AT END OF TIME STEP 2770, STRESS PERIOD    2

end timestep


start timestep kper="2" kstp="2771" mode="normal"


 FMI SETTING BUDGET TERMS FOR KSTP 2771 AND KPER 2 TO BUDGET FILE TERMS FROM KSTP 1 AND KPER 2

 FMI SETTING HEAD FOR KSTP 2771 AND KPER 2 TO BINARY FILE HEADS FROM KSTP 1 AND KPER 2

 SFR-1 SETTING BUDGET TERMS FOR KSTP 2771 AND KPER 2 TO BUDGET FILE TERMS FROM KSTP 1 AND KPER 2

end timestep


start timestep kper="2" kstp="2772" mode="normal"


 FMI SETTING BUDGET TERMS FOR KSTP 2772 AND KPER 2 TO BUDGET FILE TERMS FROM KSTP 1 AND KPER 2

 FMI SETTING HEAD FOR KSTP 2772 AND KPER 2 TO BINARY FILE HEADS FROM KSTP 1 AND KPER 2

 SFR-1 SETTING BUDGET TERMS FOR KSTP 2772 AND KPER 2 TO BUDGET FILE TERMS FROM KSTP 1 AND KPER 2

end timestep


start timestep kper="2" kstp="2773" mode="normal"


 FMI SETTING BUDGET TERMS FOR KSTP 2773 AND KPER 2 TO BUDGET FILE TERMS FROM KSTP 1 AND KPER 2

 FMI SETTING HEAD FOR KSTP 2773 AND KPER 2 TO BINARY FILE HEADS FROM KSTP 1 AND KPER 2

 SFR-1 SETTING BUDGET TERMS FOR KSTP 2773 AND KPER 2 TO BUDGET FILE TERMS FROM KSTP 1 AND KPER 2

end timestep


start timestep kper="2" kstp="2774" mode="normal"


 FMI SETTING BUDGET TERMS FOR KSTP 2774 AND KPER 2 TO BUDGET FILE TERMS FROM KSTP 1 AND KPER 2

 FMI SETTING HEAD FOR KSTP 2774 AND KPER 2 TO BINARY FILE HEADS FROM KSTP 1 AND KPER 2

 SFR-1 SETTING BUDGET TERMS FOR KSTP 2774 AND KPER 2 TO BUDGET FILE TERMS FROM KSTP 1 AND KPER 2

end timestep


start timestep kper="2" kstp="2775" mode="normal"


 FMI SETTING BUDGET TERMS FOR KSTP 2775 AND KPER 2 TO BUDGET FILE TERMS FROM KSTP 1 AND KPER 2

 FMI SETTING HEAD FOR KSTP 2775 AND KPER 2 TO BINARY FILE HEADS FROM KSTP 1 AND KPER 2

 SFR-1 SETTING BUDGET TERMS FOR KSTP 2775 AND KPER 2 TO BUDGET FILE TERMS FROM KSTP 1 AND KPER 2

end timestep


start timestep kper="2" kstp="2776" mode="normal"


 FMI SETTING BUDGET TERMS FOR KSTP 2776 AND KPER 2 TO BUDGET FILE TERMS FROM KSTP 1 AND KPER 2

 FMI SETTING HEAD FOR KSTP 2776 AND KPER 2 TO BINARY FILE HEADS FROM KSTP 1 AND KPER 2

 SFR-1 SETTING BUDGET TERMS FOR KSTP 2776 AND KPER 2 TO BUDGET FILE TERMS FROM KSTP 1 AND KPER 2

end timestep


start timestep kper="2" kstp="2777" mode="normal"


 FMI SETTING BUDGET TERMS FOR KSTP 2777 AND KPER 2 TO BUDGET FILE TERMS FROM KSTP 1 AND KPER 2

 FMI SETTING HEAD FOR KSTP 2777 AND KPER 2 TO BINARY FILE HEADS FROM KSTP 1 AND KPER 2

 SFR-1 SETTING BUDGET TERMS FOR KSTP 2777 AND KPER 2 TO BUDGET FILE TERMS FROM KSTP 1 AND KPER 2

end timestep


start timestep kper="2" kstp="2778" mode="normal"


 FMI SETTING BUDGET TERMS FOR KSTP 2778 AND KPER 2 TO BUDGET FILE TERMS FROM KSTP 1 AND KPER 2

 FMI SETTING HEAD FOR KSTP 2778 AND KPER 2 TO BINARY FILE HEADS FROM KSTP 1 AND KPER 2

 SFR-1 SETTING BUDGET TERMS FOR KSTP 2778 AND KPER 2 TO BUDGET FILE TERMS FROM KSTP 1 AND KPER 2

end timestep


start timestep kper="2" kstp="2779" mode="normal"


 FMI SETTING BUDGET TERMS FOR KSTP 2779 AND KPER 2 TO BUDGET FILE TERMS FROM KSTP 1 AND KPER 2

 FMI SETTING HEAD FOR KSTP 2779 AND KPER 2 TO BINARY FILE HEADS FROM KSTP 1 AND KPER 2

 SFR-1 SETTING BUDGET TERMS FOR KSTP 2779 AND KPER 2 TO BUDGET FILE TERMS FROM KSTP 1 AND KPER 2

end timestep


start timestep kper="2" kstp="2780" mode="normal"


 FMI SETTING BUDGET TERMS FOR KSTP 2780 AND KPER 2 TO BUDGET FILE TERMS FROM KSTP 1 AND KPER 2

 FMI SETTING HEAD FOR KSTP 2780 AND KPER 2 TO BINARY FILE HEADS FROM KSTP 1 AND KPER 2

 SFR-1 SETTING BUDGET TERMS FOR KSTP 2780 AND KPER 2 TO BUDGET FILE TERMS FROM KSTP 1 AND KPER 2

 CONCENTRATION WILL BE SAVED ON UNIT 1024 AT END OF TIME STEP 2780, STRESS PERIOD    2

end timestep


start timestep kper="2" kstp="2781" mode="normal"


 FMI SETTING BUDGET TERMS FOR KSTP 2781 AND KPER 2 TO BUDGET FILE TERMS FROM KSTP 1 AND KPER 2

 FMI SETTING HEAD FOR KSTP 2781 AND KPER 2 TO BINARY FILE HEADS FROM KSTP 1 AND KPER 2

 SFR-1 SETTING BUDGET TERMS FOR KSTP 2781 AND KPER 2 TO BUDGET FILE TERMS FROM KSTP 1 AND KPER 2

end timestep


start timestep kper="2" kstp="2782" mode="normal"


 FMI SETTING BUDGET TERMS FOR KSTP 2782 AND KPER 2 TO BUDGET FILE TERMS FROM KSTP 1 AND KPER 2

 FMI SETTING HEAD FOR KSTP 2782 AND KPER 2 TO BINARY FILE HEADS FROM KSTP 1 AND KPER 2

 SFR-1 SETTING BUDGET TERMS FOR KSTP 2782 AND KPER 2 TO BUDGET FILE TERMS FROM KSTP 1 AND KPER 2

end timestep


start timestep kper="2" kstp="2783" mode="normal"


 FMI SETTING BUDGET TERMS FOR KSTP 2783 AND KPER 2 TO BUDGET FILE TERMS FROM KSTP 1 AND KPER 2

 FMI SETTING HEAD FOR KSTP 2783 AND KPER 2 TO BINARY FILE HEADS FROM KSTP 1 AND KPER 2

 SFR-1 SETTING BUDGET TERMS FOR KSTP 2783 AND KPER 2 TO BUDGET FILE TERMS FROM KSTP 1 AND KPER 2

end timestep


start timestep kper="2" kstp="2784" mode="normal"


 FMI SETTING BUDGET TERMS FOR KSTP 2784 AND KPER 2 TO BUDGET FILE TERMS FROM KSTP 1 AND KPER 2

 FMI SETTING HEAD FOR KSTP 2784 AND KPER 2 TO BINARY FILE HEADS FROM KSTP 1 AND KPER 2

 SFR-1 SETTING BUDGET TERMS FOR KSTP 2784 AND KPER 2 TO BUDGET FILE TERMS FROM KSTP 1 AND KPER 2

end timestep


start timestep kper="2" kstp="2785" mode="normal"


 FMI SETTING BUDGET TERMS FOR KSTP 2785 AND KPER 2 TO BUDGET FILE TERMS FROM KSTP 1 AND KPER 2

 FMI SETTING HEAD FOR KSTP 2785 AND KPER 2 TO BINARY FILE HEADS FROM KSTP 1 AND KPER 2

 SFR-1 SETTING BUDGET TERMS FOR KSTP 2785 AND KPER 2 TO BUDGET FILE TERMS FROM KSTP 1 AND KPER 2

end timestep


start timestep kper="2" kstp="2786" mode="normal"


 FMI SETTING BUDGET TERMS FOR KSTP 2786 AND KPER 2 TO BUDGET FILE TERMS FROM KSTP 1 AND KPER 2

 FMI SETTING HEAD FOR KSTP 2786 AND KPER 2 TO BINARY FILE HEADS FROM KSTP 1 AND KPER 2

 SFR-1 SETTING BUDGET TERMS FOR KSTP 2786 AND KPER 2 TO BUDGET FILE TERMS FROM KSTP 1 AND KPER 2

end timestep


start timestep kper="2" kstp="2787" mode="normal"


 FMI SETTING BUDGET TERMS FOR KSTP 2787 AND KPER 2 TO BUDGET FILE TERMS FROM KSTP 1 AND KPER 2

 FMI SETTING HEAD FOR KSTP 2787 AND KPER 2 TO BINARY FILE HEADS FROM KSTP 1 AND KPER 2

 SFR-1 SETTING BUDGET TERMS FOR KSTP 2787 AND KPER 2 TO BUDGET FILE TERMS FROM KSTP 1 AND KPER 2

end timestep


start timestep kper="2" kstp="2788" mode="normal"


 FMI SETTING BUDGET TERMS FOR KSTP 2788 AND KPER 2 TO BUDGET FILE TERMS FROM KSTP 1 AND KPER 2

 FMI SETTING HEAD FOR KSTP 2788 AND KPER 2 TO BINARY FILE HEADS FROM KSTP 1 AND KPER 2

 SFR-1 SETTING BUDGET TERMS FOR KSTP 2788 AND KPER 2 TO BUDGET FILE TERMS FROM KSTP 1 AND KPER 2

end timestep


start timestep kper="2" kstp="2789" mode="normal"


 FMI SETTING BUDGET TERMS FOR KSTP 2789 AND KPER 2 TO BUDGET FILE TERMS FROM KSTP 1 AND KPER 2

 FMI SETTING HEAD FOR KSTP 2789 AND KPER 2 TO BINARY FILE HEADS FROM KSTP 1 AND KPER 2

 SFR-1 SETTING BUDGET TERMS FOR KSTP 2789 AND KPER 2 TO BUDGET FILE TERMS FROM KSTP 1 AND KPER 2

end timestep


start timestep kper="2" kstp="2790" mode="normal"


 FMI SETTING BUDGET TERMS FOR KSTP 2790 AND KPER 2 TO BUDGET FILE TERMS FROM KSTP 1 AND KPER 2

 FMI SETTING HEAD FOR KSTP 2790 AND KPER 2 TO BINARY FILE HEADS FROM KSTP 1 AND KPER 2

 SFR-1 SETTING BUDGET TERMS FOR KSTP 2790 AND KPER 2 TO BUDGET FILE TERMS FROM KSTP 1 AND KPER 2

 CONCENTRATION WILL BE SAVED ON UNIT 1024 AT END OF TIME STEP 2790, STRESS PERIOD    2

end timestep


start timestep kper="2" kstp="2791" mode="normal"


 FMI SETTING BUDGET TERMS FOR KSTP 2791 AND KPER 2 TO BUDGET FILE TERMS FROM KSTP 1 AND KPER 2

 FMI SETTING HEAD FOR KSTP 2791 AND KPER 2 TO BINARY FILE HEADS FROM KSTP 1 AND KPER 2

 SFR-1 SETTING BUDGET TERMS FOR KSTP 2791 AND KPER 2 TO BUDGET FILE TERMS FROM KSTP 1 AND KPER 2

end timestep


start timestep kper="2" kstp="2792" mode="normal"


 FMI SETTING BUDGET TERMS FOR KSTP 2792 AND KPER 2 TO BUDGET FILE TERMS FROM KSTP 1 AND KPER 2

 FMI SETTING HEAD FOR KSTP 2792 AND KPER 2 TO BINARY FILE HEADS FROM KSTP 1 AND KPER 2

 SFR-1 SETTING BUDGET TERMS FOR KSTP 2792 AND KPER 2 TO BUDGET FILE TERMS FROM KSTP 1 AND KPER 2

end timestep


start timestep kper="2" kstp="2793" mode="normal"


 FMI SETTING BUDGET TERMS FOR KSTP 2793 AND KPER 2 TO BUDGET FILE TERMS FROM KSTP 1 AND KPER 2

 FMI SETTING HEAD FOR KSTP 2793 AND KPER 2 TO BINARY FILE HEADS FROM KSTP 1 AND KPER 2

 SFR-1 SETTING BUDGET TERMS FOR KSTP 2793 AND KPER 2 TO BUDGET FILE TERMS FROM KSTP 1 AND KPER 2

end timestep


start timestep kper="2" kstp="2794" mode="normal"


 FMI SETTING BUDGET TERMS FOR KSTP 2794 AND KPER 2 TO BUDGET FILE TERMS FROM KSTP 1 AND KPER 2

 FMI SETTING HEAD FOR KSTP 2794 AND KPER 2 TO BINARY FILE HEADS FROM KSTP 1 AND KPER 2

 SFR-1 SETTING BUDGET TERMS FOR KSTP 2794 AND KPER 2 TO BUDGET FILE TERMS FROM KSTP 1 AND KPER 2

end timestep


start timestep kper="2" kstp="2795" mode="normal"


 FMI SETTING BUDGET TERMS FOR KSTP 2795 AND KPER 2 TO BUDGET FILE TERMS FROM KSTP 1 AND KPER 2

 FMI SETTING HEAD FOR KSTP 2795 AND KPER 2 TO BINARY FILE HEADS FROM KSTP 1 AND KPER 2

 SFR-1 SETTING BUDGET TERMS FOR KSTP 2795 AND KPER 2 TO BUDGET FILE TERMS FROM KSTP 1 AND KPER 2

end timestep


start timestep kper="2" kstp="2796" mode="normal"


 FMI SETTING BUDGET TERMS FOR KSTP 2796 AND KPER 2 TO BUDGET FILE TERMS FROM KSTP 1 AND KPER 2

 FMI SETTING HEAD FOR KSTP 2796 AND KPER 2 TO BINARY FILE HEADS FROM KSTP 1 AND KPER 2

 SFR-1 SETTING BUDGET TERMS FOR KSTP 2796 AND KPER 2 TO BUDGET FILE TERMS FROM KSTP 1 AND KPER 2

end timestep


start timestep kper="2" kstp="2797" mode="normal"


 FMI SETTING BUDGET TERMS FOR KSTP 2797 AND KPER 2 TO BUDGET FILE TERMS FROM KSTP 1 AND KPER 2

 FMI SETTING HEAD FOR KSTP 2797 AND KPER 2 TO BINARY FILE HEADS FROM KSTP 1 AND KPER 2

 SFR-1 SETTING BUDGET TERMS FOR KSTP 2797 AND KPER 2 TO BUDGET FILE TERMS FROM KSTP 1 AND KPER 2

end timestep


start timestep kper="2" kstp="2798" mode="normal"


 FMI SETTING BUDGET TERMS FOR KSTP 2798 AND KPER 2 TO BUDGET FILE TERMS FROM KSTP 1 AND KPER 2

 FMI SETTING HEAD FOR KSTP 2798 AND KPER 2 TO BINARY FILE HEADS FROM KSTP 1 AND KPER 2

 SFR-1 SETTING BUDGET TERMS FOR KSTP 2798 AND KPER 2 TO BUDGET FILE TERMS FROM KSTP 1 AND KPER 2

end timestep


start timestep kper="2" kstp="2799" mode="normal"


 FMI SETTING BUDGET TERMS FOR KSTP 2799 AND KPER 2 TO BUDGET FILE TERMS FROM KSTP 1 AND KPER 2

 FMI SETTING HEAD FOR KSTP 2799 AND KPER 2 TO BINARY FILE HEADS FROM KSTP 1 AND KPER 2

 SFR-1 SETTING BUDGET TERMS FOR KSTP 2799 AND KPER 2 TO BUDGET FILE TERMS FROM KSTP 1 AND KPER 2

end timestep


start timestep kper="2" kstp="2800" mode="normal"


 FMI SETTING BUDGET TERMS FOR KSTP 2800 AND KPER 2 TO BUDGET FILE TERMS FROM KSTP 1 AND KPER 2

 FMI SETTING HEAD FOR KSTP 2800 AND KPER 2 TO BINARY FILE HEADS FROM KSTP 1 AND KPER 2

 SFR-1 SETTING BUDGET TERMS FOR KSTP 2800 AND KPER 2 TO BUDGET FILE TERMS FROM KSTP 1 AND KPER 2

 CONCENTRATION WILL BE SAVED ON UNIT 1024 AT END OF TIME STEP 2800, STRESS PERIOD    2

end timestep


start timestep kper="2" kstp="2801" mode="normal"


 FMI SETTING BUDGET TERMS FOR KSTP 2801 AND KPER 2 TO BUDGET FILE TERMS FROM KSTP 1 AND KPER 2

 FMI SETTING HEAD FOR KSTP 2801 AND KPER 2 TO BINARY FILE HEADS FROM KSTP 1 AND KPER 2

 SFR-1 SETTING BUDGET TERMS FOR KSTP 2801 AND KPER 2 TO BUDGET FILE TERMS FROM KSTP 1 AND KPER 2

end timestep


start timestep kper="2" kstp="2802" mode="normal"


 FMI SETTING BUDGET TERMS FOR KSTP 2802 AND KPER 2 TO BUDGET FILE TERMS FROM KSTP 1 AND KPER 2

 FMI SETTING HEAD FOR KSTP 2802 AND KPER 2 TO BINARY FILE HEADS FROM KSTP 1 AND KPER 2

 SFR-1 SETTING BUDGET TERMS FOR KSTP 2802 AND KPER 2 TO BUDGET FILE TERMS FROM KSTP 1 AND KPER 2

end timestep


start timestep kper="2" kstp="2803" mode="normal"


 FMI SETTING BUDGET TERMS FOR KSTP 2803 AND KPER 2 TO BUDGET FILE TERMS FROM KSTP 1 AND KPER 2

 FMI SETTING HEAD FOR KSTP 2803 AND KPER 2 TO BINARY FILE HEADS FROM KSTP 1 AND KPER 2

 SFR-1 SETTING BUDGET TERMS FOR KSTP 2803 AND KPER 2 TO BUDGET FILE TERMS FROM KSTP 1 AND KPER 2

end timestep


start timestep kper="2" kstp="2804" mode="normal"


 FMI SETTING BUDGET TERMS FOR KSTP 2804 AND KPER 2 TO BUDGET FILE TERMS FROM KSTP 1 AND KPER 2

 FMI SETTING HEAD FOR KSTP 2804 AND KPER 2 TO BINARY FILE HEADS FROM KSTP 1 AND KPER 2

 SFR-1 SETTING BUDGET TERMS FOR KSTP 2804 AND KPER 2 TO BUDGET FILE TERMS FROM KSTP 1 AND KPER 2

end timestep


start timestep kper="2" kstp="2805" mode="normal"


 FMI SETTING BUDGET TERMS FOR KSTP 2805 AND KPER 2 TO BUDGET FILE TERMS FROM KSTP 1 AND KPER 2

 FMI SETTING HEAD FOR KSTP 2805 AND KPER 2 TO BINARY FILE HEADS FROM KSTP 1 AND KPER 2

 SFR-1 SETTING BUDGET TERMS FOR KSTP 2805 AND KPER 2 TO BUDGET FILE TERMS FROM KSTP 1 AND KPER 2

end timestep


start timestep kper="2" kstp="2806" mode="normal"


 FMI SETTING BUDGET TERMS FOR KSTP 2806 AND KPER 2 TO BUDGET FILE TERMS FROM KSTP 1 AND KPER 2

 FMI SETTING HEAD FOR KSTP 2806 AND KPER 2 TO BINARY FILE HEADS FROM KSTP 1 AND KPER 2

 SFR-1 SETTING BUDGET TERMS FOR KSTP 2806 AND KPER 2 TO BUDGET FILE TERMS FROM KSTP 1 AND KPER 2

end timestep


start timestep kper="2" kstp="2807" mode="normal"


 FMI SETTING BUDGET TERMS FOR KSTP 2807 AND KPER 2 TO BUDGET FILE TERMS FROM KSTP 1 AND KPER 2

 FMI SETTING HEAD FOR KSTP 2807 AND KPER 2 TO BINARY FILE HEADS FROM KSTP 1 AND KPER 2

 SFR-1 SETTING BUDGET TERMS FOR KSTP 2807 AND KPER 2 TO BUDGET FILE TERMS FROM KSTP 1 AND KPER 2

end timestep


start timestep kper="2" kstp="2808" mode="normal"


 FMI SETTING BUDGET TERMS FOR KSTP 2808 AND KPER 2 TO BUDGET FILE TERMS FROM KSTP 1 AND KPER 2

 FMI SETTING HEAD FOR KSTP 2808 AND KPER 2 TO BINARY FILE HEADS FROM KSTP 1 AND KPER 2

 SFR-1 SETTING BUDGET TERMS FOR KSTP 2808 AND KPER 2 TO BUDGET FILE TERMS FROM KSTP 1 AND KPER 2

end timestep


start timestep kper="2" kstp="2809" mode="normal"


 FMI SETTING BUDGET TERMS FOR KSTP 2809 AND KPER 2 TO BUDGET FILE TERMS FROM KSTP 1 AND KPER 2

 FMI SETTING HEAD FOR KSTP 2809 AND KPER 2 TO BINARY FILE HEADS FROM KSTP 1 AND KPER 2

 SFR-1 SETTING BUDGET TERMS FOR KSTP 2809 AND KPER 2 TO BUDGET FILE TERMS FROM KSTP 1 AND KPER 2

end timestep


start timestep kper="2" kstp="2810" mode="normal"


 FMI SETTING BUDGET TERMS FOR KSTP 2810 AND KPER 2 TO BUDGET FILE TERMS FROM KSTP 1 AND KPER 2

 FMI SETTING HEAD FOR KSTP 2810 AND KPER 2 TO BINARY FILE HEADS FROM KSTP 1 AND KPER 2

 SFR-1 SETTING BUDGET TERMS FOR KSTP 2810 AND KPER 2 TO BUDGET FILE TERMS FROM KSTP 1 AND KPER 2

 CONCENTRATION WILL BE SAVED ON UNIT 1024 AT END OF TIME STEP 2810, STRESS PERIOD    2

end timestep


start timestep kper="2" kstp="2811" mode="normal"


 FMI SETTING BUDGET TERMS FOR KSTP 2811 AND KPER 2 TO BUDGET FILE TERMS FROM KSTP 1 AND KPER 2

 FMI SETTING HEAD FOR KSTP 2811 AND KPER 2 TO BINARY FILE HEADS FROM KSTP 1 AND KPER 2

 SFR-1 SETTING BUDGET TERMS FOR KSTP 2811 AND KPER 2 TO BUDGET FILE TERMS FROM KSTP 1 AND KPER 2

end timestep


start timestep kper="2" kstp="2812" mode="normal"


 FMI SETTING BUDGET TERMS FOR KSTP 2812 AND KPER 2 TO BUDGET FILE TERMS FROM KSTP 1 AND KPER 2

 FMI SETTING HEAD FOR KSTP 2812 AND KPER 2 TO BINARY FILE HEADS FROM KSTP 1 AND KPER 2

 SFR-1 SETTING BUDGET TERMS FOR KSTP 2812 AND KPER 2 TO BUDGET FILE TERMS FROM KSTP 1 AND KPER 2

end timestep


start timestep kper="2" kstp="2813" mode="normal"


 FMI SETTING BUDGET TERMS FOR KSTP 2813 AND KPER 2 TO BUDGET FILE TERMS FROM KSTP 1 AND KPER 2

 FMI SETTING HEAD FOR KSTP 2813 AND KPER 2 TO BINARY FILE HEADS FROM KSTP 1 AND KPER 2

 SFR-1 SETTING BUDGET TERMS FOR KSTP 2813 AND KPER 2 TO BUDGET FILE TERMS FROM KSTP 1 AND KPER 2

end timestep


start timestep kper="2" kstp="2814" mode="normal"


 FMI SETTING BUDGET TERMS FOR KSTP 2814 AND KPER 2 TO BUDGET FILE TERMS FROM KSTP 1 AND KPER 2

 FMI SETTING HEAD FOR KSTP 2814 AND KPER 2 TO BINARY FILE HEADS FROM KSTP 1 AND KPER 2

 SFR-1 SETTING BUDGET TERMS FOR KSTP 2814 AND KPER 2 TO BUDGET FILE TERMS FROM KSTP 1 AND KPER 2

end timestep


start timestep kper="2" kstp="2815" mode="normal"


 FMI SETTING BUDGET TERMS FOR KSTP 2815 AND KPER 2 TO BUDGET FILE TERMS FROM KSTP 1 AND KPER 2

 FMI SETTING HEAD FOR KSTP 2815 AND KPER 2 TO BINARY FILE HEADS FROM KSTP 1 AND KPER 2

 SFR-1 SETTING BUDGET TERMS FOR KSTP 2815 AND KPER 2 TO BUDGET FILE TERMS FROM KSTP 1 AND KPER 2

end timestep


start timestep kper="2" kstp="2816" mode="normal"


 FMI SETTING BUDGET TERMS FOR KSTP 2816 AND KPER 2 TO BUDGET FILE TERMS FROM KSTP 1 AND KPER 2

 FMI SETTING HEAD FOR KSTP 2816 AND KPER 2 TO BINARY FILE HEADS FROM KSTP 1 AND KPER 2

 SFR-1 SETTING BUDGET TERMS FOR KSTP 2816 AND KPER 2 TO BUDGET FILE TERMS FROM KSTP 1 AND KPER 2

end timestep


start timestep kper="2" kstp="2817" mode="normal"


 FMI SETTING BUDGET TERMS FOR KSTP 2817 AND KPER 2 TO BUDGET FILE TERMS FROM KSTP 1 AND KPER 2

 FMI SETTING HEAD FOR KSTP 2817 AND KPER 2 TO BINARY FILE HEADS FROM KSTP 1 AND KPER 2

 SFR-1 SETTING BUDGET TERMS FOR KSTP 2817 AND KPER 2 TO BUDGET FILE TERMS FROM KSTP 1 AND KPER 2

end timestep


start timestep kper="2" kstp="2818" mode="normal"


 FMI SETTING BUDGET TERMS FOR KSTP 2818 AND KPER 2 TO BUDGET FILE TERMS FROM KSTP 1 AND KPER 2

 FMI SETTING HEAD FOR KSTP 2818 AND KPER 2 TO BINARY FILE HEADS FROM KSTP 1 AND KPER 2

 SFR-1 SETTING BUDGET TERMS FOR KSTP 2818 AND KPER 2 TO BUDGET FILE TERMS FROM KSTP 1 AND KPER 2

end timestep


start timestep kper="2" kstp="2819" mode="normal"


 FMI SETTING BUDGET TERMS FOR KSTP 2819 AND KPER 2 TO BUDGET FILE TERMS FROM KSTP 1 AND KPER 2

 FMI SETTING HEAD FOR KSTP 2819 AND KPER 2 TO BINARY FILE HEADS FROM KSTP 1 AND KPER 2

 SFR-1 SETTING BUDGET TERMS FOR KSTP 2819 AND KPER 2 TO BUDGET FILE TERMS FROM KSTP 1 AND KPER 2

end timestep


start timestep kper="2" kstp="2820" mode="normal"


 FMI SETTING BUDGET TERMS FOR KSTP 2820 AND KPER 2 TO BUDGET FILE TERMS FROM KSTP 1 AND KPER 2

 FMI SETTING HEAD FOR KSTP 2820 AND KPER 2 TO BINARY FILE HEADS FROM KSTP 1 AND KPER 2

 SFR-1 SETTING BUDGET TERMS FOR KSTP 2820 AND KPER 2 TO BUDGET FILE TERMS FROM KSTP 1 AND KPER 2

 CONCENTRATION WILL BE SAVED ON UNIT 1024 AT END OF TIME STEP 2820, STRESS PERIOD    2

end timestep


start timestep kper="2" kstp="2821" mode="normal"


 FMI SETTING BUDGET TERMS FOR KSTP 2821 AND KPER 2 TO BUDGET FILE TERMS FROM KSTP 1 AND KPER 2

 FMI SETTING HEAD FOR KSTP 2821 AND KPER 2 TO BINARY FILE HEADS FROM KSTP 1 AND KPER 2

 SFR-1 SETTING BUDGET TERMS FOR KSTP 2821 AND KPER 2 TO BUDGET FILE TERMS FROM KSTP 1 AND KPER 2

end timestep


start timestep kper="2" kstp="2822" mode="normal"


 FMI SETTING BUDGET TERMS FOR KSTP 2822 AND KPER 2 TO BUDGET FILE TERMS FROM KSTP 1 AND KPER 2

 FMI SETTING HEAD FOR KSTP 2822 AND KPER 2 TO BINARY FILE HEADS FROM KSTP 1 AND KPER 2

 SFR-1 SETTING BUDGET TERMS FOR KSTP 2822 AND KPER 2 TO BUDGET FILE TERMS FROM KSTP 1 AND KPER 2

end timestep


start timestep kper="2" kstp="2823" mode="normal"


 FMI SETTING BUDGET TERMS FOR KSTP 2823 AND KPER 2 TO BUDGET FILE TERMS FROM KSTP 1 AND KPER 2

 FMI SETTING HEAD FOR KSTP 2823 AND KPER 2 TO BINARY FILE HEADS FROM KSTP 1 AND KPER 2

 SFR-1 SETTING BUDGET TERMS FOR KSTP 2823 AND KPER 2 TO BUDGET FILE TERMS FROM KSTP 1 AND KPER 2

end timestep


start timestep kper="2" kstp="2824" mode="normal"


 FMI SETTING BUDGET TERMS FOR KSTP 2824 AND KPER 2 TO BUDGET FILE TERMS FROM KSTP 1 AND KPER 2

 FMI SETTING HEAD FOR KSTP 2824 AND KPER 2 TO BINARY FILE HEADS FROM KSTP 1 AND KPER 2

 SFR-1 SETTING BUDGET TERMS FOR KSTP 2824 AND KPER 2 TO BUDGET FILE TERMS FROM KSTP 1 AND KPER 2

end timestep


start timestep kper="2" kstp="2825" mode="normal"


 FMI SETTING BUDGET TERMS FOR KSTP 2825 AND KPER 2 TO BUDGET FILE TERMS FROM KSTP 1 AND KPER 2

 FMI SETTING HEAD FOR KSTP 2825 AND KPER 2 TO BINARY FILE HEADS FROM KSTP 1 AND KPER 2

 SFR-1 SETTING BUDGET TERMS FOR KSTP 2825 AND KPER 2 TO BUDGET FILE TERMS FROM KSTP 1 AND KPER 2

end timestep


start timestep kper="2" kstp="2826" mode="normal"


 FMI SETTING BUDGET TERMS FOR KSTP 2826 AND KPER 2 TO BUDGET FILE TERMS FROM KSTP 1 AND KPER 2

 FMI SETTING HEAD FOR KSTP 2826 AND KPER 2 TO BINARY FILE HEADS FROM KSTP 1 AND KPER 2

 SFR-1 SETTING BUDGET TERMS FOR KSTP 2826 AND KPER 2 TO BUDGET FILE TERMS FROM KSTP 1 AND KPER 2

end timestep


start timestep kper="2" kstp="2827" mode="normal"


 FMI SETTING BUDGET TERMS FOR KSTP 2827 AND KPER 2 TO BUDGET FILE TERMS FROM KSTP 1 AND KPER 2

 FMI SETTING HEAD FOR KSTP 2827 AND KPER 2 TO BINARY FILE HEADS FROM KSTP 1 AND KPER 2

 SFR-1 SETTING BUDGET TERMS FOR KSTP 2827 AND KPER 2 TO BUDGET FILE TERMS FROM KSTP 1 AND KPER 2

end timestep


start timestep kper="2" kstp="2828" mode="normal"


 FMI SETTING BUDGET TERMS FOR KSTP 2828 AND KPER 2 TO BUDGET FILE TERMS FROM KSTP 1 AND KPER 2

 FMI SETTING HEAD FOR KSTP 2828 AND KPER 2 TO BINARY FILE HEADS FROM KSTP 1 AND KPER 2

 SFR-1 SETTING BUDGET TERMS FOR KSTP 2828 AND KPER 2 TO BUDGET FILE TERMS FROM KSTP 1 AND KPER 2

end timestep


start timestep kper="2" kstp="2829" mode="normal"


 FMI SETTING BUDGET TERMS FOR KSTP 2829 AND KPER 2 TO BUDGET FILE TERMS FROM KSTP 1 AND KPER 2

 FMI SETTING HEAD FOR KSTP 2829 AND KPER 2 TO BINARY FILE HEADS FROM KSTP 1 AND KPER 2

 SFR-1 SETTING BUDGET TERMS FOR KSTP 2829 AND KPER 2 TO BUDGET FILE TERMS FROM KSTP 1 AND KPER 2

end timestep


start timestep kper="2" kstp="2830" mode="normal"


 FMI SETTING BUDGET TERMS FOR KSTP 2830 AND KPER 2 TO BUDGET FILE TERMS FROM KSTP 1 AND KPER 2

 FMI SETTING HEAD FOR KSTP 2830 AND KPER 2 TO BINARY FILE HEADS FROM KSTP 1 AND KPER 2

 SFR-1 SETTING BUDGET TERMS FOR KSTP 2830 AND KPER 2 TO BUDGET FILE TERMS FROM KSTP 1 AND KPER 2

 CONCENTRATION WILL BE SAVED ON UNIT 1024 AT END OF TIME STEP 2830, STRESS PERIOD    2

end timestep


start timestep kper="2" kstp="2831" mode="normal"


 FMI SETTING BUDGET TERMS FOR KSTP 2831 AND KPER 2 TO BUDGET FILE TERMS FROM KSTP 1 AND KPER 2

 FMI SETTING HEAD FOR KSTP 2831 AND KPER 2 TO BINARY FILE HEADS FROM KSTP 1 AND KPER 2

 SFR-1 SETTING BUDGET TERMS FOR KSTP 2831 AND KPER 2 TO BUDGET FILE TERMS FROM KSTP 1 AND KPER 2

end timestep


start timestep kper="2" kstp="2832" mode="normal"


 FMI SETTING BUDGET TERMS FOR KSTP 2832 AND KPER 2 TO BUDGET FILE TERMS FROM KSTP 1 AND KPER 2

 FMI SETTING HEAD FOR KSTP 2832 AND KPER 2 TO BINARY FILE HEADS FROM KSTP 1 AND KPER 2

 SFR-1 SETTING BUDGET TERMS FOR KSTP 2832 AND KPER 2 TO BUDGET FILE TERMS FROM KSTP 1 AND KPER 2

end timestep


start timestep kper="2" kstp="2833" mode="normal"


 FMI SETTING BUDGET TERMS FOR KSTP 2833 AND KPER 2 TO BUDGET FILE TERMS FROM KSTP 1 AND KPER 2

 FMI SETTING HEAD FOR KSTP 2833 AND KPER 2 TO BINARY FILE HEADS FROM KSTP 1 AND KPER 2

 SFR-1 SETTING BUDGET TERMS FOR KSTP 2833 AND KPER 2 TO BUDGET FILE TERMS FROM KSTP 1 AND KPER 2

end timestep


start timestep kper="2" kstp="2834" mode="normal"


 FMI SETTING BUDGET TERMS FOR KSTP 2834 AND KPER 2 TO BUDGET FILE TERMS FROM KSTP 1 AND KPER 2

 FMI SETTING HEAD FOR KSTP 2834 AND KPER 2 TO BINARY FILE HEADS FROM KSTP 1 AND KPER 2

 SFR-1 SETTING BUDGET TERMS FOR KSTP 2834 AND KPER 2 TO BUDGET FILE TERMS FROM KSTP 1 AND KPER 2

end timestep


start timestep kper="2" kstp="2835" mode="normal"


 FMI SETTING BUDGET TERMS FOR KSTP 2835 AND KPER 2 TO BUDGET FILE TERMS FROM KSTP 1 AND KPER 2

 FMI SETTING HEAD FOR KSTP 2835 AND KPER 2 TO BINARY FILE HEADS FROM KSTP 1 AND KPER 2

 SFR-1 SETTING BUDGET TERMS FOR KSTP 2835 AND KPER 2 TO BUDGET FILE TERMS FROM KSTP 1 AND KPER 2

end timestep


start timestep kper="2" kstp="2836" mode="normal"


 FMI SETTING BUDGET TERMS FOR KSTP 2836 AND KPER 2 TO BUDGET FILE TERMS FROM KSTP 1 AND KPER 2

 FMI SETTING HEAD FOR KSTP 2836 AND KPER 2 TO BINARY FILE HEADS FROM KSTP 1 AND KPER 2

 SFR-1 SETTING BUDGET TERMS FOR KSTP 2836 AND KPER 2 TO BUDGET FILE TERMS FROM KSTP 1 AND KPER 2

end timestep


start timestep kper="2" kstp="2837" mode="normal"


 FMI SETTING BUDGET TERMS FOR KSTP 2837 AND KPER 2 TO BUDGET FILE TERMS FROM KSTP 1 AND KPER 2

 FMI SETTING HEAD FOR KSTP 2837 AND KPER 2 TO BINARY FILE HEADS FROM KSTP 1 AND KPER 2

 SFR-1 SETTING BUDGET TERMS FOR KSTP 2837 AND KPER 2 TO BUDGET FILE TERMS FROM KSTP 1 AND KPER 2

end timestep


start timestep kper="2" kstp="2838" mode="normal"


 FMI SETTING BUDGET TERMS FOR KSTP 2838 AND KPER 2 TO BUDGET FILE TERMS FROM KSTP 1 AND KPER 2

 FMI SETTING HEAD FOR KSTP 2838 AND KPER 2 TO BINARY FILE HEADS FROM KSTP 1 AND KPER 2

 SFR-1 SETTING BUDGET TERMS FOR KSTP 2838 AND KPER 2 TO BUDGET FILE TERMS FROM KSTP 1 AND KPER 2

end timestep


start timestep kper="2" kstp="2839" mode="normal"


 FMI SETTING BUDGET TERMS FOR KSTP 2839 AND KPER 2 TO BUDGET FILE TERMS FROM KSTP 1 AND KPER 2

 FMI SETTING HEAD FOR KSTP 2839 AND KPER 2 TO BINARY FILE HEADS FROM KSTP 1 AND KPER 2

 SFR-1 SETTING BUDGET TERMS FOR KSTP 2839 AND KPER 2 TO BUDGET FILE TERMS FROM KSTP 1 AND KPER 2

end timestep


start timestep kper="2" kstp="2840" mode="normal"


 FMI SETTING BUDGET TERMS FOR KSTP 2840 AND KPER 2 TO BUDGET FILE TERMS FROM KSTP 1 AND KPER 2

 FMI SETTING HEAD FOR KSTP 2840 AND KPER 2 TO BINARY FILE HEADS FROM KSTP 1 AND KPER 2

 SFR-1 SETTING BUDGET TERMS FOR KSTP 2840 AND KPER 2 TO BUDGET FILE TERMS FROM KSTP 1 AND KPER 2

 CONCENTRATION WILL BE SAVED ON UNIT 1024 AT END OF TIME STEP 2840, STRESS PERIOD    2

end timestep


start timestep kper="2" kstp="2841" mode="normal"


 FMI SETTING BUDGET TERMS FOR KSTP 2841 AND KPER 2 TO BUDGET FILE TERMS FROM KSTP 1 AND KPER 2

 FMI SETTING HEAD FOR KSTP 2841 AND KPER 2 TO BINARY FILE HEADS FROM KSTP 1 AND KPER 2

 SFR-1 SETTING BUDGET TERMS FOR KSTP 2841 AND KPER 2 TO BUDGET FILE TERMS FROM KSTP 1 AND KPER 2

end timestep


start timestep kper="2" kstp="2842" mode="normal"


 FMI SETTING BUDGET TERMS FOR KSTP 2842 AND KPER 2 TO BUDGET FILE TERMS FROM KSTP 1 AND KPER 2

 FMI SETTING HEAD FOR KSTP 2842 AND KPER 2 TO BINARY FILE HEADS FROM KSTP 1 AND KPER 2

 SFR-1 SETTING BUDGET TERMS FOR KSTP 2842 AND KPER 2 TO BUDGET FILE TERMS FROM KSTP 1 AND KPER 2

end timestep


start timestep kper="2" kstp="2843" mode="normal"


 FMI SETTING BUDGET TERMS FOR KSTP 2843 AND KPER 2 TO BUDGET FILE TERMS FROM KSTP 1 AND KPER 2

 FMI SETTING HEAD FOR KSTP 2843 AND KPER 2 TO BINARY FILE HEADS FROM KSTP 1 AND KPER 2

 SFR-1 SETTING BUDGET TERMS FOR KSTP 2843 AND KPER 2 TO BUDGET FILE TERMS FROM KSTP 1 AND KPER 2

end timestep


start timestep kper="2" kstp="2844" mode="normal"


 FMI SETTING BUDGET TERMS FOR KSTP 2844 AND KPER 2 TO BUDGET FILE TERMS FROM KSTP 1 AND KPER 2

 FMI SETTING HEAD FOR KSTP 2844 AND KPER 2 TO BINARY FILE HEADS FROM KSTP 1 AND KPER 2

 SFR-1 SETTING BUDGET TERMS FOR KSTP 2844 AND KPER 2 TO BUDGET FILE TERMS FROM KSTP 1 AND KPER 2

end timestep


start timestep kper="2" kstp="2845" mode="normal"


 FMI SETTING BUDGET TERMS FOR KSTP 2845 AND KPER 2 TO BUDGET FILE TERMS FROM KSTP 1 AND KPER 2

 FMI SETTING HEAD FOR KSTP 2845 AND KPER 2 TO BINARY FILE HEADS FROM KSTP 1 AND KPER 2

 SFR-1 SETTING BUDGET TERMS FOR KSTP 2845 AND KPER 2 TO BUDGET FILE TERMS FROM KSTP 1 AND KPER 2

end timestep


start timestep kper="2" kstp="2846" mode="normal"


 FMI SETTING BUDGET TERMS FOR KSTP 2846 AND KPER 2 TO BUDGET FILE TERMS FROM KSTP 1 AND KPER 2

 FMI SETTING HEAD FOR KSTP 2846 AND KPER 2 TO BINARY FILE HEADS FROM KSTP 1 AND KPER 2

 SFR-1 SETTING BUDGET TERMS FOR KSTP 2846 AND KPER 2 TO BUDGET FILE TERMS FROM KSTP 1 AND KPER 2

end timestep


start timestep kper="2" kstp="2847" mode="normal"


 FMI SETTING BUDGET TERMS FOR KSTP 2847 AND KPER 2 TO BUDGET FILE TERMS FROM KSTP 1 AND KPER 2

 FMI SETTING HEAD FOR KSTP 2847 AND KPER 2 TO BINARY FILE HEADS FROM KSTP 1 AND KPER 2

 SFR-1 SETTING BUDGET TERMS FOR KSTP 2847 AND KPER 2 TO BUDGET FILE TERMS FROM KSTP 1 AND KPER 2

end timestep


start timestep kper="2" kstp="2848" mode="normal"


 FMI SETTING BUDGET TERMS FOR KSTP 2848 AND KPER 2 TO BUDGET FILE TERMS FROM KSTP 1 AND KPER 2

 FMI SETTING HEAD FOR KSTP 2848 AND KPER 2 TO BINARY FILE HEADS FROM KSTP 1 AND KPER 2

 SFR-1 SETTING BUDGET TERMS FOR KSTP 2848 AND KPER 2 TO BUDGET FILE TERMS FROM KSTP 1 AND KPER 2

end timestep


start timestep kper="2" kstp="2849" mode="normal"


 FMI SETTING BUDGET TERMS FOR KSTP 2849 AND KPER 2 TO BUDGET FILE TERMS FROM KSTP 1 AND KPER 2

 FMI SETTING HEAD FOR KSTP 2849 AND KPER 2 TO BINARY FILE HEADS FROM KSTP 1 AND KPER 2

 SFR-1 SETTING BUDGET TERMS FOR KSTP 2849 AND KPER 2 TO BUDGET FILE TERMS FROM KSTP 1 AND KPER 2

end timestep


start timestep kper="2" kstp="2850" mode="normal"


 FMI SETTING BUDGET TERMS FOR KSTP 2850 AND KPER 2 TO BUDGET FILE TERMS FROM KSTP 1 AND KPER 2

 FMI SETTING HEAD FOR KSTP 2850 AND KPER 2 TO BINARY FILE HEADS FROM KSTP 1 AND KPER 2

 SFR-1 SETTING BUDGET TERMS FOR KSTP 2850 AND KPER 2 TO BUDGET FILE TERMS FROM KSTP 1 AND KPER 2

 CONCENTRATION WILL BE SAVED ON UNIT 1024 AT END OF TIME STEP 2850, STRESS PERIOD    2

end timestep


start timestep kper="2" kstp="2851" mode="normal"


 FMI SETTING BUDGET TERMS FOR KSTP 2851 AND KPER 2 TO BUDGET FILE TERMS FROM KSTP 1 AND KPER 2

 FMI SETTING HEAD FOR KSTP 2851 AND KPER 2 TO BINARY FILE HEADS FROM KSTP 1 AND KPER 2

 SFR-1 SETTING BUDGET TERMS FOR KSTP 2851 AND KPER 2 TO BUDGET FILE TERMS FROM KSTP 1 AND KPER 2

end timestep


start timestep kper="2" kstp="2852" mode="normal"


 FMI SETTING BUDGET TERMS FOR KSTP 2852 AND KPER 2 TO BUDGET FILE TERMS FROM KSTP 1 AND KPER 2

 FMI SETTING HEAD FOR KSTP 2852 AND KPER 2 TO BINARY FILE HEADS FROM KSTP 1 AND KPER 2

 SFR-1 SETTING BUDGET TERMS FOR KSTP 2852 AND KPER 2 TO BUDGET FILE TERMS FROM KSTP 1 AND KPER 2

end timestep


start timestep kper="2" kstp="2853" mode="normal"


 FMI SETTING BUDGET TERMS FOR KSTP 2853 AND KPER 2 TO BUDGET FILE TERMS FROM KSTP 1 AND KPER 2

 FMI SETTING HEAD FOR KSTP 2853 AND KPER 2 TO BINARY FILE HEADS FROM KSTP 1 AND KPER 2

 SFR-1 SETTING BUDGET TERMS FOR KSTP 2853 AND KPER 2 TO BUDGET FILE TERMS FROM KSTP 1 AND KPER 2

end timestep


start timestep kper="2" kstp="2854" mode="normal"


 FMI SETTING BUDGET TERMS FOR KSTP 2854 AND KPER 2 TO BUDGET FILE TERMS FROM KSTP 1 AND KPER 2

 FMI SETTING HEAD FOR KSTP 2854 AND KPER 2 TO BINARY FILE HEADS FROM KSTP 1 AND KPER 2

 SFR-1 SETTING BUDGET TERMS FOR KSTP 2854 AND KPER 2 TO BUDGET FILE TERMS FROM KSTP 1 AND KPER 2

end timestep


start timestep kper="2" kstp="2855" mode="normal"


 FMI SETTING BUDGET TERMS FOR KSTP 2855 AND KPER 2 TO BUDGET FILE TERMS FROM KSTP 1 AND KPER 2

 FMI SETTING HEAD FOR KSTP 2855 AND KPER 2 TO BINARY FILE HEADS FROM KSTP 1 AND KPER 2

 SFR-1 SETTING BUDGET TERMS FOR KSTP 2855 AND KPER 2 TO BUDGET FILE TERMS FROM KSTP 1 AND KPER 2

end timestep


start timestep kper="2" kstp="2856" mode="normal"


 FMI SETTING BUDGET TERMS FOR KSTP 2856 AND KPER 2 TO BUDGET FILE TERMS FROM KSTP 1 AND KPER 2

 FMI SETTING HEAD FOR KSTP 2856 AND KPER 2 TO BINARY FILE HEADS FROM KSTP 1 AND KPER 2

 SFR-1 SETTING BUDGET TERMS FOR KSTP 2856 AND KPER 2 TO BUDGET FILE TERMS FROM KSTP 1 AND KPER 2

end timestep


start timestep kper="2" kstp="2857" mode="normal"


 FMI SETTING BUDGET TERMS FOR KSTP 2857 AND KPER 2 TO BUDGET FILE TERMS FROM KSTP 1 AND KPER 2

 FMI SETTING HEAD FOR KSTP 2857 AND KPER 2 TO BINARY FILE HEADS FROM KSTP 1 AND KPER 2

 SFR-1 SETTING BUDGET TERMS FOR KSTP 2857 AND KPER 2 TO BUDGET FILE TERMS FROM KSTP 1 AND KPER 2

end timestep


start timestep kper="2" kstp="2858" mode="normal"


 FMI SETTING BUDGET TERMS FOR KSTP 2858 AND KPER 2 TO BUDGET FILE TERMS FROM KSTP 1 AND KPER 2

 FMI SETTING HEAD FOR KSTP 2858 AND KPER 2 TO BINARY FILE HEADS FROM KSTP 1 AND KPER 2

 SFR-1 SETTING BUDGET TERMS FOR KSTP 2858 AND KPER 2 TO BUDGET FILE TERMS FROM KSTP 1 AND KPER 2

end timestep


start timestep kper="2" kstp="2859" mode="normal"


 FMI SETTING BUDGET TERMS FOR KSTP 2859 AND KPER 2 TO BUDGET FILE TERMS FROM KSTP 1 AND KPER 2

 FMI SETTING HEAD FOR KSTP 2859 AND KPER 2 TO BINARY FILE HEADS FROM KSTP 1 AND KPER 2

 SFR-1 SETTING BUDGET TERMS FOR KSTP 2859 AND KPER 2 TO BUDGET FILE TERMS FROM KSTP 1 AND KPER 2

end timestep


start timestep kper="2" kstp="2860" mode="normal"


 FMI SETTING BUDGET TERMS FOR KSTP 2860 AND KPER 2 TO BUDGET FILE TERMS FROM KSTP 1 AND KPER 2

 FMI SETTING HEAD FOR KSTP 2860 AND KPER 2 TO BINARY FILE HEADS FROM KSTP 1 AND KPER 2

 SFR-1 SETTING BUDGET TERMS FOR KSTP 2860 AND KPER 2 TO BUDGET FILE TERMS FROM KSTP 1 AND KPER 2

 CONCENTRATION WILL BE SAVED ON UNIT 1024 AT END OF TIME STEP 2860, STRESS PERIOD    2

end timestep


start timestep kper="2" kstp="2861" mode="normal"


 FMI SETTING BUDGET TERMS FOR KSTP 2861 AND KPER 2 TO BUDGET FILE TERMS FROM KSTP 1 AND KPER 2

 FMI SETTING HEAD FOR KSTP 2861 AND KPER 2 TO BINARY FILE HEADS FROM KSTP 1 AND KPER 2

 SFR-1 SETTING BUDGET TERMS FOR KSTP 2861 AND KPER 2 TO BUDGET FILE TERMS FROM KSTP 1 AND KPER 2

end timestep


start timestep kper="2" kstp="2862" mode="normal"


 FMI SETTING BUDGET TERMS FOR KSTP 2862 AND KPER 2 TO BUDGET FILE TERMS FROM KSTP 1 AND KPER 2

 FMI SETTING HEAD FOR KSTP 2862 AND KPER 2 TO BINARY FILE HEADS FROM KSTP 1 AND KPER 2

 SFR-1 SETTING BUDGET TERMS FOR KSTP 2862 AND KPER 2 TO BUDGET FILE TERMS FROM KSTP 1 AND KPER 2

end timestep


start timestep kper="2" kstp="2863" mode="normal"


 FMI SETTING BUDGET TERMS FOR KSTP 2863 AND KPER 2 TO BUDGET FILE TERMS FROM KSTP 1 AND KPER 2

 FMI SETTING HEAD FOR KSTP 2863 AND KPER 2 TO BINARY FILE HEADS FROM KSTP 1 AND KPER 2

 SFR-1 SETTING BUDGET TERMS FOR KSTP 2863 AND KPER 2 TO BUDGET FILE TERMS FROM KSTP 1 AND KPER 2

end timestep


start timestep kper="2" kstp="2864" mode="normal"


 FMI SETTING BUDGET TERMS FOR KSTP 2864 AND KPER 2 TO BUDGET FILE TERMS FROM KSTP 1 AND KPER 2

 FMI SETTING HEAD FOR KSTP 2864 AND KPER 2 TO BINARY FILE HEADS FROM KSTP 1 AND KPER 2

 SFR-1 SETTING BUDGET TERMS FOR KSTP 2864 AND KPER 2 TO BUDGET FILE TERMS FROM KSTP 1 AND KPER 2

end timestep


start timestep kper="2" kstp="2865" mode="normal"


 FMI SETTING BUDGET TERMS FOR KSTP 2865 AND KPER 2 TO BUDGET FILE TERMS FROM KSTP 1 AND KPER 2

 FMI SETTING HEAD FOR KSTP 2865 AND KPER 2 TO BINARY FILE HEADS FROM KSTP 1 AND KPER 2

 SFR-1 SETTING BUDGET TERMS FOR KSTP 2865 AND KPER 2 TO BUDGET FILE TERMS FROM KSTP 1 AND KPER 2

end timestep


start timestep kper="2" kstp="2866" mode="normal"


 FMI SETTING BUDGET TERMS FOR KSTP 2866 AND KPER 2 TO BUDGET FILE TERMS FROM KSTP 1 AND KPER 2

 FMI SETTING HEAD FOR KSTP 2866 AND KPER 2 TO BINARY FILE HEADS FROM KSTP 1 AND KPER 2

 SFR-1 SETTING BUDGET TERMS FOR KSTP 2866 AND KPER 2 TO BUDGET FILE TERMS FROM KSTP 1 AND KPER 2

end timestep


start timestep kper="2" kstp="2867" mode="normal"


 FMI SETTING BUDGET TERMS FOR KSTP 2867 AND KPER 2 TO BUDGET FILE TERMS FROM KSTP 1 AND KPER 2

 FMI SETTING HEAD FOR KSTP 2867 AND KPER 2 TO BINARY FILE HEADS FROM KSTP 1 AND KPER 2

 SFR-1 SETTING BUDGET TERMS FOR KSTP 2867 AND KPER 2 TO BUDGET FILE TERMS FROM KSTP 1 AND KPER 2

end timestep


start timestep kper="2" kstp="2868" mode="normal"


 FMI SETTING BUDGET TERMS FOR KSTP 2868 AND KPER 2 TO BUDGET FILE TERMS FROM KSTP 1 AND KPER 2

 FMI SETTING HEAD FOR KSTP 2868 AND KPER 2 TO BINARY FILE HEADS FROM KSTP 1 AND KPER 2

 SFR-1 SETTING BUDGET TERMS FOR KSTP 2868 AND KPER 2 TO BUDGET FILE TERMS FROM KSTP 1 AND KPER 2

end timestep


start timestep kper="2" kstp="2869" mode="normal"


 FMI SETTING BUDGET TERMS FOR KSTP 2869 AND KPER 2 TO BUDGET FILE TERMS FROM KSTP 1 AND KPER 2

 FMI SETTING HEAD FOR KSTP 2869 AND KPER 2 TO BINARY FILE HEADS FROM KSTP 1 AND KPER 2

 SFR-1 SETTING BUDGET TERMS FOR KSTP 2869 AND KPER 2 TO BUDGET FILE TERMS FROM KSTP 1 AND KPER 2

end timestep


start timestep kper="2" kstp="2870" mode="normal"


 FMI SETTING BUDGET TERMS FOR KSTP 2870 AND KPER 2 TO BUDGET FILE TERMS FROM KSTP 1 AND KPER 2

 FMI SETTING HEAD FOR KSTP 2870 AND KPER 2 TO BINARY FILE HEADS FROM KSTP 1 AND KPER 2

 SFR-1 SETTING BUDGET TERMS FOR KSTP 2870 AND KPER 2 TO BUDGET FILE TERMS FROM KSTP 1 AND KPER 2

 CONCENTRATION WILL BE SAVED ON UNIT 1024 AT END OF TIME STEP 2870, STRESS PERIOD    2

end timestep


start timestep kper="2" kstp="2871" mode="normal"


 FMI SETTING BUDGET TERMS FOR KSTP 2871 AND KPER 2 TO BUDGET FILE TERMS FROM KSTP 1 AND KPER 2

 FMI SETTING HEAD FOR KSTP 2871 AND KPER 2 TO BINARY FILE HEADS FROM KSTP 1 AND KPER 2

 SFR-1 SETTING BUDGET TERMS FOR KSTP 2871 AND KPER 2 TO BUDGET FILE TERMS FROM KSTP 1 AND KPER 2

end timestep


start timestep kper="2" kstp="2872" mode="normal"


 FMI SETTING BUDGET TERMS FOR KSTP 2872 AND KPER 2 TO BUDGET FILE TERMS FROM KSTP 1 AND KPER 2

 FMI SETTING HEAD FOR KSTP 2872 AND KPER 2 TO BINARY FILE HEADS FROM KSTP 1 AND KPER 2

 SFR-1 SETTING BUDGET TERMS FOR KSTP 2872 AND KPER 2 TO BUDGET FILE TERMS FROM KSTP 1 AND KPER 2

end timestep


start timestep kper="2" kstp="2873" mode="normal"


 FMI SETTING BUDGET TERMS FOR KSTP 2873 AND KPER 2 TO BUDGET FILE TERMS FROM KSTP 1 AND KPER 2

 FMI SETTING HEAD FOR KSTP 2873 AND KPER 2 TO BINARY FILE HEADS FROM KSTP 1 AND KPER 2

 SFR-1 SETTING BUDGET TERMS FOR KSTP 2873 AND KPER 2 TO BUDGET FILE TERMS FROM KSTP 1 AND KPER 2

end timestep


start timestep kper="2" kstp="2874" mode="normal"


 FMI SETTING BUDGET TERMS FOR KSTP 2874 AND KPER 2 TO BUDGET FILE TERMS FROM KSTP 1 AND KPER 2

 FMI SETTING HEAD FOR KSTP 2874 AND KPER 2 TO BINARY FILE HEADS FROM KSTP 1 AND KPER 2

 SFR-1 SETTING BUDGET TERMS FOR KSTP 2874 AND KPER 2 TO BUDGET FILE TERMS FROM KSTP 1 AND KPER 2

end timestep


start timestep kper="2" kstp="2875" mode="normal"


 FMI SETTING BUDGET TERMS FOR KSTP 2875 AND KPER 2 TO BUDGET FILE TERMS FROM KSTP 1 AND KPER 2

 FMI SETTING HEAD FOR KSTP 2875 AND KPER 2 TO BINARY FILE HEADS FROM KSTP 1 AND KPER 2

 SFR-1 SETTING BUDGET TERMS FOR KSTP 2875 AND KPER 2 TO BUDGET FILE TERMS FROM KSTP 1 AND KPER 2

end timestep


start timestep kper="2" kstp="2876" mode="normal"


 FMI SETTING BUDGET TERMS FOR KSTP 2876 AND KPER 2 TO BUDGET FILE TERMS FROM KSTP 1 AND KPER 2

 FMI SETTING HEAD FOR KSTP 2876 AND KPER 2 TO BINARY FILE HEADS FROM KSTP 1 AND KPER 2

 SFR-1 SETTING BUDGET TERMS FOR KSTP 2876 AND KPER 2 TO BUDGET FILE TERMS FROM KSTP 1 AND KPER 2

end timestep


start timestep kper="2" kstp="2877" mode="normal"


 FMI SETTING BUDGET TERMS FOR KSTP 2877 AND KPER 2 TO BUDGET FILE TERMS FROM KSTP 1 AND KPER 2

 FMI SETTING HEAD FOR KSTP 2877 AND KPER 2 TO BINARY FILE HEADS FROM KSTP 1 AND KPER 2

 SFR-1 SETTING BUDGET TERMS FOR KSTP 2877 AND KPER 2 TO BUDGET FILE TERMS FROM KSTP 1 AND KPER 2

end timestep


start timestep kper="2" kstp="2878" mode="normal"


 FMI SETTING BUDGET TERMS FOR KSTP 2878 AND KPER 2 TO BUDGET FILE TERMS FROM KSTP 1 AND KPER 2

 FMI SETTING HEAD FOR KSTP 2878 AND KPER 2 TO BINARY FILE HEADS FROM KSTP 1 AND KPER 2

 SFR-1 SETTING BUDGET TERMS FOR KSTP 2878 AND KPER 2 TO BUDGET FILE TERMS FROM KSTP 1 AND KPER 2

end timestep


start timestep kper="2" kstp="2879" mode="normal"


 FMI SETTING BUDGET TERMS FOR KSTP 2879 AND KPER 2 TO BUDGET FILE TERMS FROM KSTP 1 AND KPER 2

 FMI SETTING HEAD FOR KSTP 2879 AND KPER 2 TO BINARY FILE HEADS FROM KSTP 1 AND KPER 2

 SFR-1 SETTING BUDGET TERMS FOR KSTP 2879 AND KPER 2 TO BUDGET FILE TERMS FROM KSTP 1 AND KPER 2

end timestep


start timestep kper="2" kstp="2880" mode="normal"


 FMI SETTING BUDGET TERMS FOR KSTP 2880 AND KPER 2 TO BUDGET FILE TERMS FROM KSTP 1 AND KPER 2

 FMI SETTING HEAD FOR KSTP 2880 AND KPER 2 TO BINARY FILE HEADS FROM KSTP 1 AND KPER 2

 SFR-1 SETTING BUDGET TERMS FOR KSTP 2880 AND KPER 2 TO BUDGET FILE TERMS FROM KSTP 1 AND KPER 2

 CONCENTRATION WILL BE SAVED ON UNIT 1024 AT END OF TIME STEP 2880, STRESS PERIOD    2

end timestep


start timestep kper="2" kstp="2881" mode="normal"


 FMI SETTING BUDGET TERMS FOR KSTP 2881 AND KPER 2 TO BUDGET FILE TERMS FROM KSTP 1 AND KPER 2

 FMI SETTING HEAD FOR KSTP 2881 AND KPER 2 TO BINARY FILE HEADS FROM KSTP 1 AND KPER 2

 SFR-1 SETTING BUDGET TERMS FOR KSTP 2881 AND KPER 2 TO BUDGET FILE TERMS FROM KSTP 1 AND KPER 2

end timestep


start timestep kper="2" kstp="2882" mode="normal"


 FMI SETTING BUDGET TERMS FOR KSTP 2882 AND KPER 2 TO BUDGET FILE TERMS FROM KSTP 1 AND KPER 2

 FMI SETTING HEAD FOR KSTP 2882 AND KPER 2 TO BINARY FILE HEADS FROM KSTP 1 AND KPER 2

 SFR-1 SETTING BUDGET TERMS FOR KSTP 2882 AND KPER 2 TO BUDGET FILE TERMS FROM KSTP 1 AND KPER 2

end timestep


start timestep kper="2" kstp="2883" mode="normal"


 FMI SETTING BUDGET TERMS FOR KSTP 2883 AND KPER 2 TO BUDGET FILE TERMS FROM KSTP 1 AND KPER 2

 FMI SETTING HEAD FOR KSTP 2883 AND KPER 2 TO BINARY FILE HEADS FROM KSTP 1 AND KPER 2

 SFR-1 SETTING BUDGET TERMS FOR KSTP 2883 AND KPER 2 TO BUDGET FILE TERMS FROM KSTP 1 AND KPER 2

end timestep


start timestep kper="2" kstp="2884" mode="normal"


 FMI SETTING BUDGET TERMS FOR KSTP 2884 AND KPER 2 TO BUDGET FILE TERMS FROM KSTP 1 AND KPER 2

 FMI SETTING HEAD FOR KSTP 2884 AND KPER 2 TO BINARY FILE HEADS FROM KSTP 1 AND KPER 2

 SFR-1 SETTING BUDGET TERMS FOR KSTP 2884 AND KPER 2 TO BUDGET FILE TERMS FROM KSTP 1 AND KPER 2

end timestep


start timestep kper="2" kstp="2885" mode="normal"


 FMI SETTING BUDGET TERMS FOR KSTP 2885 AND KPER 2 TO BUDGET FILE TERMS FROM KSTP 1 AND KPER 2

 FMI SETTING HEAD FOR KSTP 2885 AND KPER 2 TO BINARY FILE HEADS FROM KSTP 1 AND KPER 2

 SFR-1 SETTING BUDGET TERMS FOR KSTP 2885 AND KPER 2 TO BUDGET FILE TERMS FROM KSTP 1 AND KPER 2

end timestep


start timestep kper="2" kstp="2886" mode="normal"


 FMI SETTING BUDGET TERMS FOR KSTP 2886 AND KPER 2 TO BUDGET FILE TERMS FROM KSTP 1 AND KPER 2

 FMI SETTING HEAD FOR KSTP 2886 AND KPER 2 TO BINARY FILE HEADS FROM KSTP 1 AND KPER 2

 SFR-1 SETTING BUDGET TERMS FOR KSTP 2886 AND KPER 2 TO BUDGET FILE TERMS FROM KSTP 1 AND KPER 2

end timestep


start timestep kper="2" kstp="2887" mode="normal"


 FMI SETTING BUDGET TERMS FOR KSTP 2887 AND KPER 2 TO BUDGET FILE TERMS FROM KSTP 1 AND KPER 2

 FMI SETTING HEAD FOR KSTP 2887 AND KPER 2 TO BINARY FILE HEADS FROM KSTP 1 AND KPER 2

 SFR-1 SETTING BUDGET TERMS FOR KSTP 2887 AND KPER 2 TO BUDGET FILE TERMS FROM KSTP 1 AND KPER 2

end timestep


start timestep kper="2" kstp="2888" mode="normal"


 FMI SETTING BUDGET TERMS FOR KSTP 2888 AND KPER 2 TO BUDGET FILE TERMS FROM KSTP 1 AND KPER 2

 FMI SETTING HEAD FOR KSTP 2888 AND KPER 2 TO BINARY FILE HEADS FROM KSTP 1 AND KPER 2

 SFR-1 SETTING BUDGET TERMS FOR KSTP 2888 AND KPER 2 TO BUDGET FILE TERMS FROM KSTP 1 AND KPER 2

end timestep


start timestep kper="2" kstp="2889" mode="normal"


 FMI SETTING BUDGET TERMS FOR KSTP 2889 AND KPER 2 TO BUDGET FILE TERMS FROM KSTP 1 AND KPER 2

 FMI SETTING HEAD FOR KSTP 2889 AND KPER 2 TO BINARY FILE HEADS FROM KSTP 1 AND KPER 2

 SFR-1 SETTING BUDGET TERMS FOR KSTP 2889 AND KPER 2 TO BUDGET FILE TERMS FROM KSTP 1 AND KPER 2

end timestep


start timestep kper="2" kstp="2890" mode="normal"


 FMI SETTING BUDGET TERMS FOR KSTP 2890 AND KPER 2 TO BUDGET FILE TERMS FROM KSTP 1 AND KPER 2

 FMI SETTING HEAD FOR KSTP 2890 AND KPER 2 TO BINARY FILE HEADS FROM KSTP 1 AND KPER 2

 SFR-1 SETTING BUDGET TERMS FOR KSTP 2890 AND KPER 2 TO BUDGET FILE TERMS FROM KSTP 1 AND KPER 2

 CONCENTRATION WILL BE SAVED ON UNIT 1024 AT END OF TIME STEP 2890, STRESS PERIOD    2

end timestep


start timestep kper="2" kstp="2891" mode="normal"


 FMI SETTING BUDGET TERMS FOR KSTP 2891 AND KPER 2 TO BUDGET FILE TERMS FROM KSTP 1 AND KPER 2

 FMI SETTING HEAD FOR KSTP 2891 AND KPER 2 TO BINARY FILE HEADS FROM KSTP 1 AND KPER 2

 SFR-1 SETTING BUDGET TERMS FOR KSTP 2891 AND KPER 2 TO BUDGET FILE TERMS FROM KSTP 1 AND KPER 2

end timestep


start timestep kper="2" kstp="2892" mode="normal"


 FMI SETTING BUDGET TERMS FOR KSTP 2892 AND KPER 2 TO BUDGET FILE TERMS FROM KSTP 1 AND KPER 2

 FMI SETTING HEAD FOR KSTP 2892 AND KPER 2 TO BINARY FILE HEADS FROM KSTP 1 AND KPER 2

 SFR-1 SETTING BUDGET TERMS FOR KSTP 2892 AND KPER 2 TO BUDGET FILE TERMS FROM KSTP 1 AND KPER 2

end timestep


start timestep kper="2" kstp="2893" mode="normal"


 FMI SETTING BUDGET TERMS FOR KSTP 2893 AND KPER 2 TO BUDGET FILE TERMS FROM KSTP 1 AND KPER 2

 FMI SETTING HEAD FOR KSTP 2893 AND KPER 2 TO BINARY FILE HEADS FROM KSTP 1 AND KPER 2

 SFR-1 SETTING BUDGET TERMS FOR KSTP 2893 AND KPER 2 TO BUDGET FILE TERMS FROM KSTP 1 AND KPER 2

end timestep


start timestep kper="2" kstp="2894" mode="normal"


 FMI SETTING BUDGET TERMS FOR KSTP 2894 AND KPER 2 TO BUDGET FILE TERMS FROM KSTP 1 AND KPER 2

 FMI SETTING HEAD FOR KSTP 2894 AND KPER 2 TO BINARY FILE HEADS FROM KSTP 1 AND KPER 2

 SFR-1 SETTING BUDGET TERMS FOR KSTP 2894 AND KPER 2 TO BUDGET FILE TERMS FROM KSTP 1 AND KPER 2

end timestep


start timestep kper="2" kstp="2895" mode="normal"


 FMI SETTING BUDGET TERMS FOR KSTP 2895 AND KPER 2 TO BUDGET FILE TERMS FROM KSTP 1 AND KPER 2

 FMI SETTING HEAD FOR KSTP 2895 AND KPER 2 TO BINARY FILE HEADS FROM KSTP 1 AND KPER 2

 SFR-1 SETTING BUDGET TERMS FOR KSTP 2895 AND KPER 2 TO BUDGET FILE TERMS FROM KSTP 1 AND KPER 2

end timestep


start timestep kper="2" kstp="2896" mode="normal"


 FMI SETTING BUDGET TERMS FOR KSTP 2896 AND KPER 2 TO BUDGET FILE TERMS FROM KSTP 1 AND KPER 2

 FMI SETTING HEAD FOR KSTP 2896 AND KPER 2 TO BINARY FILE HEADS FROM KSTP 1 AND KPER 2

 SFR-1 SETTING BUDGET TERMS FOR KSTP 2896 AND KPER 2 TO BUDGET FILE TERMS FROM KSTP 1 AND KPER 2

end timestep


start timestep kper="2" kstp="2897" mode="normal"


 FMI SETTING BUDGET TERMS FOR KSTP 2897 AND KPER 2 TO BUDGET FILE TERMS FROM KSTP 1 AND KPER 2

 FMI SETTING HEAD FOR KSTP 2897 AND KPER 2 TO BINARY FILE HEADS FROM KSTP 1 AND KPER 2

 SFR-1 SETTING BUDGET TERMS FOR KSTP 2897 AND KPER 2 TO BUDGET FILE TERMS FROM KSTP 1 AND KPER 2

end timestep


start timestep kper="2" kstp="2898" mode="normal"


 FMI SETTING BUDGET TERMS FOR KSTP 2898 AND KPER 2 TO BUDGET FILE TERMS FROM KSTP 1 AND KPER 2

 FMI SETTING HEAD FOR KSTP 2898 AND KPER 2 TO BINARY FILE HEADS FROM KSTP 1 AND KPER 2

 SFR-1 SETTING BUDGET TERMS FOR KSTP 2898 AND KPER 2 TO BUDGET FILE TERMS FROM KSTP 1 AND KPER 2

end timestep


start timestep kper="2" kstp="2899" mode="normal"


 FMI SETTING BUDGET TERMS FOR KSTP 2899 AND KPER 2 TO BUDGET FILE TERMS FROM KSTP 1 AND KPER 2

 FMI SETTING HEAD FOR KSTP 2899 AND KPER 2 TO BINARY FILE HEADS FROM KSTP 1 AND KPER 2

 SFR-1 SETTING BUDGET TERMS FOR KSTP 2899 AND KPER 2 TO BUDGET FILE TERMS FROM KSTP 1 AND KPER 2

end timestep


start timestep kper="2" kstp="2900" mode="normal"


 FMI SETTING BUDGET TERMS FOR KSTP 2900 AND KPER 2 TO BUDGET FILE TERMS FROM KSTP 1 AND KPER 2

 FMI SETTING HEAD FOR KSTP 2900 AND KPER 2 TO BINARY FILE HEADS FROM KSTP 1 AND KPER 2

 SFR-1 SETTING BUDGET TERMS FOR KSTP 2900 AND KPER 2 TO BUDGET FILE TERMS FROM KSTP 1 AND KPER 2

 CONCENTRATION WILL BE SAVED ON UNIT 1024 AT END OF TIME STEP 2900, STRESS PERIOD    2

end timestep


start timestep kper="2" kstp="2901" mode="normal"


 FMI SETTING BUDGET TERMS FOR KSTP 2901 AND KPER 2 TO BUDGET FILE TERMS FROM KSTP 1 AND KPER 2

 FMI SETTING HEAD FOR KSTP 2901 AND KPER 2 TO BINARY FILE HEADS FROM KSTP 1 AND KPER 2

 SFR-1 SETTING BUDGET TERMS FOR KSTP 2901 AND KPER 2 TO BUDGET FILE TERMS FROM KSTP 1 AND KPER 2

end timestep


start timestep kper="2" kstp="2902" mode="normal"


 FMI SETTING BUDGET TERMS FOR KSTP 2902 AND KPER 2 TO BUDGET FILE TERMS FROM KSTP 1 AND KPER 2

 FMI SETTING HEAD FOR KSTP 2902 AND KPER 2 TO BINARY FILE HEADS FROM KSTP 1 AND KPER 2

 SFR-1 SETTING BUDGET TERMS FOR KSTP 2902 AND KPER 2 TO BUDGET FILE TERMS FROM KSTP 1 AND KPER 2

end timestep


start timestep kper="2" kstp="2903" mode="normal"


 FMI SETTING BUDGET TERMS FOR KSTP 2903 AND KPER 2 TO BUDGET FILE TERMS FROM KSTP 1 AND KPER 2

 FMI SETTING HEAD FOR KSTP 2903 AND KPER 2 TO BINARY FILE HEADS FROM KSTP 1 AND KPER 2

 SFR-1 SETTING BUDGET TERMS FOR KSTP 2903 AND KPER 2 TO BUDGET FILE TERMS FROM KSTP 1 AND KPER 2

end timestep


start timestep kper="2" kstp="2904" mode="normal"


 FMI SETTING BUDGET TERMS FOR KSTP 2904 AND KPER 2 TO BUDGET FILE TERMS FROM KSTP 1 AND KPER 2

 FMI SETTING HEAD FOR KSTP 2904 AND KPER 2 TO BINARY FILE HEADS FROM KSTP 1 AND KPER 2

 SFR-1 SETTING BUDGET TERMS FOR KSTP 2904 AND KPER 2 TO BUDGET FILE TERMS FROM KSTP 1 AND KPER 2

end timestep


start timestep kper="2" kstp="2905" mode="normal"


 FMI SETTING BUDGET TERMS FOR KSTP 2905 AND KPER 2 TO BUDGET FILE TERMS FROM KSTP 1 AND KPER 2

 FMI SETTING HEAD FOR KSTP 2905 AND KPER 2 TO BINARY FILE HEADS FROM KSTP 1 AND KPER 2

 SFR-1 SETTING BUDGET TERMS FOR KSTP 2905 AND KPER 2 TO BUDGET FILE TERMS FROM KSTP 1 AND KPER 2

end timestep


start timestep kper="2" kstp="2906" mode="normal"


 FMI SETTING BUDGET TERMS FOR KSTP 2906 AND KPER 2 TO BUDGET FILE TERMS FROM KSTP 1 AND KPER 2

 FMI SETTING HEAD FOR KSTP 2906 AND KPER 2 TO BINARY FILE HEADS FROM KSTP 1 AND KPER 2

 SFR-1 SETTING BUDGET TERMS FOR KSTP 2906 AND KPER 2 TO BUDGET FILE TERMS FROM KSTP 1 AND KPER 2

end timestep


start timestep kper="2" kstp="2907" mode="normal"


 FMI SETTING BUDGET TERMS FOR KSTP 2907 AND KPER 2 TO BUDGET FILE TERMS FROM KSTP 1 AND KPER 2

 FMI SETTING HEAD FOR KSTP 2907 AND KPER 2 TO BINARY FILE HEADS FROM KSTP 1 AND KPER 2

 SFR-1 SETTING BUDGET TERMS FOR KSTP 2907 AND KPER 2 TO BUDGET FILE TERMS FROM KSTP 1 AND KPER 2

end timestep


start timestep kper="2" kstp="2908" mode="normal"


 FMI SETTING BUDGET TERMS FOR KSTP 2908 AND KPER 2 TO BUDGET FILE TERMS FROM KSTP 1 AND KPER 2

 FMI SETTING HEAD FOR KSTP 2908 AND KPER 2 TO BINARY FILE HEADS FROM KSTP 1 AND KPER 2

 SFR-1 SETTING BUDGET TERMS FOR KSTP 2908 AND KPER 2 TO BUDGET FILE TERMS FROM KSTP 1 AND KPER 2

end timestep


start timestep kper="2" kstp="2909" mode="normal"


 FMI SETTING BUDGET TERMS FOR KSTP 2909 AND KPER 2 TO BUDGET FILE TERMS FROM KSTP 1 AND KPER 2

 FMI SETTING HEAD FOR KSTP 2909 AND KPER 2 TO BINARY FILE HEADS FROM KSTP 1 AND KPER 2

 SFR-1 SETTING BUDGET TERMS FOR KSTP 2909 AND KPER 2 TO BUDGET FILE TERMS FROM KSTP 1 AND KPER 2

end timestep


start timestep kper="2" kstp="2910" mode="normal"


 FMI SETTING BUDGET TERMS FOR KSTP 2910 AND KPER 2 TO BUDGET FILE TERMS FROM KSTP 1 AND KPER 2

 FMI SETTING HEAD FOR KSTP 2910 AND KPER 2 TO BINARY FILE HEADS FROM KSTP 1 AND KPER 2

 SFR-1 SETTING BUDGET TERMS FOR KSTP 2910 AND KPER 2 TO BUDGET FILE TERMS FROM KSTP 1 AND KPER 2

 CONCENTRATION WILL BE SAVED ON UNIT 1024 AT END OF TIME STEP 2910, STRESS PERIOD    2

end timestep


start timestep kper="2" kstp="2911" mode="normal"


 FMI SETTING BUDGET TERMS FOR KSTP 2911 AND KPER 2 TO BUDGET FILE TERMS FROM KSTP 1 AND KPER 2

 FMI SETTING HEAD FOR KSTP 2911 AND KPER 2 TO BINARY FILE HEADS FROM KSTP 1 AND KPER 2

 SFR-1 SETTING BUDGET TERMS FOR KSTP 2911 AND KPER 2 TO BUDGET FILE TERMS FROM KSTP 1 AND KPER 2

end timestep


start timestep kper="2" kstp="2912" mode="normal"


 FMI SETTING BUDGET TERMS FOR KSTP 2912 AND KPER 2 TO BUDGET FILE TERMS FROM KSTP 1 AND KPER 2

 FMI SETTING HEAD FOR KSTP 2912 AND KPER 2 TO BINARY FILE HEADS FROM KSTP 1 AND KPER 2

 SFR-1 SETTING BUDGET TERMS FOR KSTP 2912 AND KPER 2 TO BUDGET FILE TERMS FROM KSTP 1 AND KPER 2

end timestep


start timestep kper="2" kstp="2913" mode="normal"


 FMI SETTING BUDGET TERMS FOR KSTP 2913 AND KPER 2 TO BUDGET FILE TERMS FROM KSTP 1 AND KPER 2

 FMI SETTING HEAD FOR KSTP 2913 AND KPER 2 TO BINARY FILE HEADS FROM KSTP 1 AND KPER 2

 SFR-1 SETTING BUDGET TERMS FOR KSTP 2913 AND KPER 2 TO BUDGET FILE TERMS FROM KSTP 1 AND KPER 2

end timestep


start timestep kper="2" kstp="2914" mode="normal"


 FMI SETTING BUDGET TERMS FOR KSTP 2914 AND KPER 2 TO BUDGET FILE TERMS FROM KSTP 1 AND KPER 2

 FMI SETTING HEAD FOR KSTP 2914 AND KPER 2 TO BINARY FILE HEADS FROM KSTP 1 AND KPER 2

 SFR-1 SETTING BUDGET TERMS FOR KSTP 2914 AND KPER 2 TO BUDGET FILE TERMS FROM KSTP 1 AND KPER 2

end timestep


start timestep kper="2" kstp="2915" mode="normal"


 FMI SETTING BUDGET TERMS FOR KSTP 2915 AND KPER 2 TO BUDGET FILE TERMS FROM KSTP 1 AND KPER 2

 FMI SETTING HEAD FOR KSTP 2915 AND KPER 2 TO BINARY FILE HEADS FROM KSTP 1 AND KPER 2

 SFR-1 SETTING BUDGET TERMS FOR KSTP 2915 AND KPER 2 TO BUDGET FILE TERMS FROM KSTP 1 AND KPER 2

end timestep


start timestep kper="2" kstp="2916" mode="normal"


 FMI SETTING BUDGET TERMS FOR KSTP 2916 AND KPER 2 TO BUDGET FILE TERMS FROM KSTP 1 AND KPER 2

 FMI SETTING HEAD FOR KSTP 2916 AND KPER 2 TO BINARY FILE HEADS FROM KSTP 1 AND KPER 2

 SFR-1 SETTING BUDGET TERMS FOR KSTP 2916 AND KPER 2 TO BUDGET FILE TERMS FROM KSTP 1 AND KPER 2

end timestep


start timestep kper="2" kstp="2917" mode="normal"


 FMI SETTING BUDGET TERMS FOR KSTP 2917 AND KPER 2 TO BUDGET FILE TERMS FROM KSTP 1 AND KPER 2

 FMI SETTING HEAD FOR KSTP 2917 AND KPER 2 TO BINARY FILE HEADS FROM KSTP 1 AND KPER 2

 SFR-1 SETTING BUDGET TERMS FOR KSTP 2917 AND KPER 2 TO BUDGET FILE TERMS FROM KSTP 1 AND KPER 2

end timestep


start timestep kper="2" kstp="2918" mode="normal"


 FMI SETTING BUDGET TERMS FOR KSTP 2918 AND KPER 2 TO BUDGET FILE TERMS FROM KSTP 1 AND KPER 2

 FMI SETTING HEAD FOR KSTP 2918 AND KPER 2 TO BINARY FILE HEADS FROM KSTP 1 AND KPER 2

 SFR-1 SETTING BUDGET TERMS FOR KSTP 2918 AND KPER 2 TO BUDGET FILE TERMS FROM KSTP 1 AND KPER 2

end timestep


start timestep kper="2" kstp="2919" mode="normal"


 FMI SETTING BUDGET TERMS FOR KSTP 2919 AND KPER 2 TO BUDGET FILE TERMS FROM KSTP 1 AND KPER 2

 FMI SETTING HEAD FOR KSTP 2919 AND KPER 2 TO BINARY FILE HEADS FROM KSTP 1 AND KPER 2

 SFR-1 SETTING BUDGET TERMS FOR KSTP 2919 AND KPER 2 TO BUDGET FILE TERMS FROM KSTP 1 AND KPER 2

end timestep


start timestep kper="2" kstp="2920" mode="normal"


 FMI SETTING BUDGET TERMS FOR KSTP 2920 AND KPER 2 TO BUDGET FILE TERMS FROM KSTP 1 AND KPER 2

 FMI SETTING HEAD FOR KSTP 2920 AND KPER 2 TO BINARY FILE HEADS FROM KSTP 1 AND KPER 2

 SFR-1 SETTING BUDGET TERMS FOR KSTP 2920 AND KPER 2 TO BUDGET FILE TERMS FROM KSTP 1 AND KPER 2

 CONCENTRATION WILL BE SAVED ON UNIT 1024 AT END OF TIME STEP 2920, STRESS PERIOD    2

end timestep


start timestep kper="2" kstp="2921" mode="normal"


 FMI SETTING BUDGET TERMS FOR KSTP 2921 AND KPER 2 TO BUDGET FILE TERMS FROM KSTP 1 AND KPER 2

 FMI SETTING HEAD FOR KSTP 2921 AND KPER 2 TO BINARY FILE HEADS FROM KSTP 1 AND KPER 2

 SFR-1 SETTING BUDGET TERMS FOR KSTP 2921 AND KPER 2 TO BUDGET FILE TERMS FROM KSTP 1 AND KPER 2

end timestep


start timestep kper="2" kstp="2922" mode="normal"


 FMI SETTING BUDGET TERMS FOR KSTP 2922 AND KPER 2 TO BUDGET FILE TERMS FROM KSTP 1 AND KPER 2

 FMI SETTING HEAD FOR KSTP 2922 AND KPER 2 TO BINARY FILE HEADS FROM KSTP 1 AND KPER 2

 SFR-1 SETTING BUDGET TERMS FOR KSTP 2922 AND KPER 2 TO BUDGET FILE TERMS FROM KSTP 1 AND KPER 2

end timestep


start timestep kper="2" kstp="2923" mode="normal"


 FMI SETTING BUDGET TERMS FOR KSTP 2923 AND KPER 2 TO BUDGET FILE TERMS FROM KSTP 1 AND KPER 2

 FMI SETTING HEAD FOR KSTP 2923 AND KPER 2 TO BINARY FILE HEADS FROM KSTP 1 AND KPER 2

 SFR-1 SETTING BUDGET TERMS FOR KSTP 2923 AND KPER 2 TO BUDGET FILE TERMS FROM KSTP 1 AND KPER 2

end timestep


start timestep kper="2" kstp="2924" mode="normal"


 FMI SETTING BUDGET TERMS FOR KSTP 2924 AND KPER 2 TO BUDGET FILE TERMS FROM KSTP 1 AND KPER 2

 FMI SETTING HEAD FOR KSTP 2924 AND KPER 2 TO BINARY FILE HEADS FROM KSTP 1 AND KPER 2

 SFR-1 SETTING BUDGET TERMS FOR KSTP 2924 AND KPER 2 TO BUDGET FILE TERMS FROM KSTP 1 AND KPER 2

end timestep


start timestep kper="2" kstp="2925" mode="normal"


 FMI SETTING BUDGET TERMS FOR KSTP 2925 AND KPER 2 TO BUDGET FILE TERMS FROM KSTP 1 AND KPER 2

 FMI SETTING HEAD FOR KSTP 2925 AND KPER 2 TO BINARY FILE HEADS FROM KSTP 1 AND KPER 2

 SFR-1 SETTING BUDGET TERMS FOR KSTP 2925 AND KPER 2 TO BUDGET FILE TERMS FROM KSTP 1 AND KPER 2

end timestep


start timestep kper="2" kstp="2926" mode="normal"


 FMI SETTING BUDGET TERMS FOR KSTP 2926 AND KPER 2 TO BUDGET FILE TERMS FROM KSTP 1 AND KPER 2

 FMI SETTING HEAD FOR KSTP 2926 AND KPER 2 TO BINARY FILE HEADS FROM KSTP 1 AND KPER 2

 SFR-1 SETTING BUDGET TERMS FOR KSTP 2926 AND KPER 2 TO BUDGET FILE TERMS FROM KSTP 1 AND KPER 2

end timestep


start timestep kper="2" kstp="2927" mode="normal"


 FMI SETTING BUDGET TERMS FOR KSTP 2927 AND KPER 2 TO BUDGET FILE TERMS FROM KSTP 1 AND KPER 2

 FMI SETTING HEAD FOR KSTP 2927 AND KPER 2 TO BINARY FILE HEADS FROM KSTP 1 AND KPER 2

 SFR-1 SETTING BUDGET TERMS FOR KSTP 2927 AND KPER 2 TO BUDGET FILE TERMS FROM KSTP 1 AND KPER 2

 SFT PACKAGE (SFR-1) FLOW RATES   PERIOD      2   STEP     2927
 ----------------------------------------------------------------------------------------
   NUMBER   CELLID                    RATE       NAME                                    
 ----------------------------------------------------------------------------------------
     1      (1,1,169)             0.0000000      SFTREACH1                               
     2      (1,1,170)             0.0000000      SFTREACH2                               
     3      (1,1,171)             0.0000000      SFTREACH3                               
     4      (1,1,172)             0.0000000      SFTREACH4                               
     5      (1,1,173)             0.0000000      SFTREACH5                               
     6      (1,1,174)             0.0000000      SFTREACH6                               
     7      (1,1,175)             0.0000000      SFTREACH7                               
     8      (1,1,176)             0.0000000      SFTREACH8                               
     9      (1,1,177)             0.0000000      SFTREACH9                               
     10     (1,1,178)             0.0000000      SFTREACH10                              
     11     (1,1,179)             0.0000000      SFTREACH11                              
     12     (1,1,180)             0.0000000      SFTREACH12                              
     13     (1,1,181)             0.0000000      SFTREACH13                              
     14     (1,1,182)             0.0000000      SFTREACH14                              
     15     (1,1,183)             0.0000000      SFTREACH15                              
     16     (1,1,184)             0.0000000      SFTREACH16                              
     17     (1,1,185)             0.0000000      SFTREACH17                              
     18     (1,1,186)             0.0000000      SFTREACH18                              
     19     (1,1,187)             0.0000000      SFTREACH19                              
     20     (1,1,188)             0.0000000      SFTREACH20                              
     21     (1,1,189)             0.0000000      SFTREACH21                              
     22     (1,1,190)             0.0000000      SFTREACH22                              
     23     (1,1,191)             0.0000000      SFTREACH23                              
     24     (1,1,192)             0.0000000      SFTREACH24                              
 ----------------------------------------------------------------------------------------




 SFR-1 PACKAGE - SUMMARY OF FLOWS FOR EACH CONTROL VOLUME   PERIOD      2   STEP     2927
 ----------------------------------------------------------------------------------------------------------------------------------------------------------------------
                                                                                                                                                             PERCENT   
   NUMBER      INFLOW      OUTFLOW        GWF        RAINFALL   EVAPORATION     RUNOFF     EXT INFLOW  EXT OUTFLOW    STORAGE      CONSTANT     IN - OUT    DIFFERENCE 
 ----------------------------------------------------------------------------------------------------------------------------------------------------------------------
     1       0.0000       0.0000       0.0000       0.0000       0.0000       0.0000       0.0000       0.0000       0.0000       0.0000       0.0000       0.0000     
     2       0.0000       0.0000       0.0000       0.0000       0.0000       0.0000       0.0000       0.0000       0.0000       0.0000       0.0000       0.0000     
     3       0.0000       0.0000       0.0000       0.0000       0.0000       0.0000       0.0000       0.0000       0.0000       0.0000       0.0000       0.0000     
     4       0.0000       0.0000       0.0000       0.0000       0.0000       0.0000       0.0000       0.0000       0.0000       0.0000       0.0000       0.0000     
     5       0.0000       0.0000       0.0000       0.0000       0.0000       0.0000       0.0000       0.0000       0.0000       0.0000       0.0000       0.0000     
     6       0.0000       0.0000       0.0000       0.0000       0.0000       0.0000       0.0000       0.0000       0.0000       0.0000       0.0000       0.0000     
     7       0.0000       0.0000       0.0000       0.0000       0.0000       0.0000       0.0000       0.0000       0.0000       0.0000       0.0000       0.0000     
     8       0.0000       0.0000       0.0000       0.0000       0.0000       0.0000       0.0000       0.0000       0.0000       0.0000       0.0000       0.0000     
     9       0.0000       0.0000       0.0000       0.0000       0.0000       0.0000       0.0000       0.0000       0.0000       0.0000       0.0000       0.0000     
     10      0.0000       0.0000       0.0000       0.0000       0.0000       0.0000       0.0000       0.0000       0.0000       0.0000       0.0000       0.0000     
     11      0.0000       0.0000       0.0000       0.0000       0.0000       0.0000       0.0000       0.0000       0.0000       0.0000       0.0000       0.0000     
     12      0.0000       0.0000       0.0000       0.0000       0.0000       0.0000       0.0000       0.0000       0.0000       0.0000       0.0000       0.0000     
     13      0.0000       0.0000       0.0000       0.0000       0.0000       0.0000       0.0000       0.0000       0.0000       0.0000       0.0000       0.0000     
     14      0.0000       0.0000       0.0000       0.0000       0.0000       0.0000       0.0000       0.0000       0.0000       0.0000       0.0000       0.0000     
     15      0.0000       0.0000       0.0000       0.0000       0.0000       0.0000       0.0000       0.0000       0.0000       0.0000       0.0000       0.0000     
     16      0.0000       0.0000       0.0000       0.0000       0.0000       0.0000       0.0000       0.0000       0.0000       0.0000       0.0000       0.0000     
     17      0.0000       0.0000       0.0000       0.0000       0.0000       0.0000       0.0000       0.0000       0.0000       0.0000       0.0000       0.0000     
     18      0.0000       0.0000       0.0000       0.0000       0.0000       0.0000       0.0000       0.0000       0.0000       0.0000       0.0000       0.0000     
     19      0.0000       0.0000       0.0000       0.0000       0.0000       0.0000       0.0000       0.0000       0.0000       0.0000       0.0000       0.0000     
     20      0.0000       0.0000       0.0000       0.0000       0.0000       0.0000       0.0000       0.0000       0.0000       0.0000       0.0000       0.0000     
     21      0.0000       0.0000       0.0000       0.0000       0.0000       0.0000       0.0000       0.0000       0.0000       0.0000       0.0000       0.0000     
     22      0.0000       0.0000       0.0000       0.0000       0.0000       0.0000       0.0000       0.0000       0.0000       0.0000       0.0000       0.0000     
     23      0.0000       0.0000       0.0000       0.0000       0.0000       0.0000       0.0000       0.0000       0.0000       0.0000       0.0000       0.0000     
     24      0.0000       0.0000       0.0000       0.0000       0.0000       0.0000       0.0000       0.0000       0.0000       0.0000       0.0000       0.0000     
 ----------------------------------------------------------------------------------------------------------------------------------------------------------------------



 SFT PACKAGE (SFR-1) CONCENTRATION FOR EACH CONTROL VOLUME   PERIOD      2   STEP     2927
 --------------------------------------------
 NAME                   NUMBER       CONC    
 --------------------------------------------
 SFTREACH1                1       0.0000     
 SFTREACH2                2       0.0000     
 SFTREACH3                3       1.0000     
 SFTREACH4                4       1.0000     
 SFTREACH5                5       1.0000     
 SFTREACH6                6       1.0000     
 SFTREACH7                7       1.0000     
 SFTREACH8                8       1.0000     
 SFTREACH9                9       1.0000     
 SFTREACH10               10      1.0000     
 SFTREACH11               11      1.0000     
 SFTREACH12               12      1.0000     
 SFTREACH13               13      1.0000     
 SFTREACH14               14      1.0000     
 SFTREACH15               15      1.0000     
 SFTREACH16               16      1.0000     
 SFTREACH17               17      1.0000     
 SFTREACH18               18      1.0000     
 SFTREACH19               19      1.0000     
 SFTREACH20               20      1.0000     
 SFTREACH21               21      1.0000     
 SFTREACH22               22      1.0000     
 SFTREACH23               23      1.0000     
 SFTREACH24               24      1.0000     
 --------------------------------------------



 CONCENTRATION WILL BE SAVED ON UNIT 1024 AT END OF TIME STEP 2927, STRESS PERIOD    2


  SFR-1 BUDGET FOR ENTIRE MODEL AT END OF TIME STEP 2927, STRESS PERIOD   2
  ------------------------------------------------------------------------------

     CUMULATIVE SFR-1      M       RATES FOR THIS TIME STEP      M/T
     ------------------                 ------------------------

           IN:                                      IN:
           ---                                      ---
                 GWF =           0.0000                   GWF =           0.0000
            RAINFALL =           0.0000              RAINFALL =           0.0000
         EVAPORATION =           0.0000           EVAPORATION =           0.0000
              RUNOFF =           0.0000                RUNOFF =           0.0000
          EXT-INFLOW =       31536.0000            EXT-INFLOW =           0.0000
         EXT-OUTFLOW =           0.0000           EXT-OUTFLOW =           0.0000
             STORAGE =           1.0261               STORAGE =           0.0000
            CONSTANT =           0.0000              CONSTANT =           0.0000

            TOTAL IN =       31537.0261              TOTAL IN =           0.0000

          OUT:                                     OUT:
          ----                                     ----
                 GWF =       31537.0261                   GWF =           0.0000
            RAINFALL =           0.0000              RAINFALL =           0.0000
         EVAPORATION =           0.0000           EVAPORATION =           0.0000
              RUNOFF =           0.0000                RUNOFF =           0.0000
          EXT-INFLOW =           0.0000            EXT-INFLOW =           0.0000
         EXT-OUTFLOW =           0.0000           EXT-OUTFLOW =           0.0000
             STORAGE =       2.7756E-16               STORAGE =           0.0000
            CONSTANT =           0.0000              CONSTANT =           0.0000

           TOTAL OUT =       31537.0261             TOTAL OUT =           0.0000

            IN - OUT =      -3.6380E-12              IN - OUT =           0.0000

 PERCENT DISCREPANCY =          -0.00     PERCENT DISCREPANCY =           0.00



  MASS BUDGET FOR ENTIRE MODEL AT END OF TIME STEP 2927, STRESS PERIOD   2
  ---------------------------------------------------------------------------------------------------

     CUMULATIVE MASS      M       RATES FOR THIS TIME STEP      M/T          PACKAGE NAME    
     ------------------                 ------------------------                     ----------------

           IN:                                      IN:
           ---                                      ---
     STORAGE-AQUEOUS =      208748.7488       STORAGE-AQUEOUS =       3.4123E-02     MST             
               RCH-1 =           0.0000                 RCH-1 =           0.0000     SSM             
               CHD-1 =           0.0000                 CHD-1 =           0.0000     SSM             
     FLOW-CORRECTION =       3.6557E-02       FLOW-CORRECTION =       2.7936E-08                     
                 SFT =       31537.0261                   SFT =           0.0000     SFR-1           

            TOTAL IN =      240285.8115              TOTAL IN =       3.4123E-02

          OUT:                                     OUT:
          ----                                     ----
     STORAGE-AQUEOUS =      209033.9208       STORAGE-AQUEOUS =       1.6072E-05     MST             
               RCH-1 =           0.0000                 RCH-1 =           0.0000     SSM             
               CHD-1 =       31251.8819                 CHD-1 =       3.4107E-02     SSM             
     FLOW-CORRECTION =       9.1248E-03       FLOW-CORRECTION =       4.4076E-09                     
                 SFT =           0.0000                   SFT =           0.0000     SFR-1           

           TOTAL OUT =      240285.8118             TOTAL OUT =       3.4123E-02

            IN - OUT =      -3.4093E-04              IN - OUT =      -9.9005E-09

 PERCENT DISCREPANCY =          -0.00     PERCENT DISCREPANCY =          -0.00




         TIME SUMMARY AT END OF TIME STEP 2927 IN STRESS PERIOD    2
                    SECONDS     MINUTES      HOURS       DAYS        YEARS
                    -----------------------------------------------------------
   TIME STEP LENGTH 8.64000E+05  14400.      240.00      10.000     2.73785E-02
 STRESS PERIOD TIME 2.52893E+09 4.21488E+07 7.02480E+05  29270.      80.137    
         TOTAL TIME 2.59200E+09 4.32000E+07 7.20000E+05  30000.      82.136    


end timestep

